temp_xtb_pdb
  PyMOL2.4          3D                             0

 89 88  0  0  0  0  0  0  0  0999 V2000
   20.3890    7.3970   29.8580 N   0  0  0  0  0  0  0  0  0  0  0  0
   20.9700    8.0870   28.7390 C   0  0  0  0  0  0  0  0  0  0  0  0
   20.1000    7.8680   27.5410 C   0  0  0  0  0  0  0  0  0  0  0  0
   20.3290    7.0250   26.6910 O   0  0  0  0  0  0  0  0  0  0  0  0
   22.3910    7.5930   28.4590 C   0  0  0  0  0  0  0  0  0  0  0  0
   23.1520    8.4540   27.4920 C   0  0  0  0  0  0  0  0  0  0  0  0
   23.6090    9.7080   27.8680 C   0  0  0  0  0  0  0  0  0  0  0  0
   23.4120    8.0110   26.2030 C   0  0  0  0  0  0  0  0  0  0  0  0
   24.3090   10.5010   26.9780 C   0  0  0  0  0  0  0  0  0  0  0  0
   24.1130    8.8010   25.3130 C   0  0  0  0  0  0  0  0  0  0  0  0
   24.5620   10.0470   25.7010 C   0  0  0  0  0  0  0  0  0  0  0  0
   20.7740    6.4920   30.0890 H   0  0  0  0  0  0  0  0  0  0  0  0
   20.9850    9.1580   28.9820 H   0  0  0  0  0  0  0  0  0  0  0  0
   22.9520    7.5520   29.3920 H   0  0  0  0  0  0  0  0  0  0  0  0
   22.3510    6.5820   28.0570 H   0  0  0  0  0  0  0  0  0  0  0  0
   23.4100   10.0660   28.8780 H   0  0  0  0  0  0  0  0  0  0  0  0
   23.0570    7.0270   25.8970 H   0  0  0  0  0  0  0  0  0  0  0  0
   24.6620   11.4840   27.2870 H   0  0  0  0  0  0  0  0  0  0  0  0
   24.3110    8.4410   24.3030 H   0  0  0  0  0  0  0  0  0  0  0  0
   25.1130   10.6720   24.9990 H   0  0  0  0  0  0  0  0  0  0  0  0
   19.6880    3.0730   34.7260 N   0  0  0  0  0  0  0  0  0  0  0  0
   20.8820    3.3500   33.9730 C   0  0  0  0  0  0  0  0  0  0  0  0
   21.5610    4.5370   34.5810 C   0  0  0  0  0  0  0  0  0  0  0  0
   21.7820    4.5770   35.7760 O   0  0  0  0  0  0  0  0  0  0  0  0
   20.5200    3.4300   32.4910 C   0  0  0  0  0  0  0  0  0  0  0  0
   19.7040    2.3020   35.3750 H   0  0  0  0  0  0  0  0  0  0  0  0
   21.5550    2.4980   34.1270 H   0  0  0  0  0  0  0  0  0  0  0  0
   21.4060    3.5130   31.8720 H   0  0  0  0  0  0  0  0  0  0  0  0
   19.9890    2.5220   32.2040 H   0  0  0  0  0  0  0  0  0  0  0  0
   19.8580    4.2720   32.3070 H   0  0  0  0  0  0  0  0  0  0  0  0
   21.8780    5.5350   33.7390 N   0  0  0  0  0  0  0  0  0  0  0  0
   22.5250    6.7230   34.2100 C   0  0  0  0  0  0  0  0  0  0  0  0
   21.6290    7.3400   35.2410 C   0  0  0  0  0  0  0  0  0  0  0  0
   22.1070    8.0480   36.1120 O   0  0  0  0  0  0  0  0  0  0  0  0
   22.8080    7.6930   33.0640 C   0  0  0  0  0  0  0  0  0  0  0  0
   24.0210    7.3320   32.2180 C   0  0  0  0  0  0  0  0  0  0  0  0
   24.5590    8.6890   31.1590 S   0  0  0  0  0  0  0  0  0  0  0  0
   25.7760    7.8610   30.1400 C   0  0  0  0  0  0  0  0  0  0  0  0
   21.7380    5.4290   32.7440 H   0  0  0  0  0  0  0  0  0  0  0  0
   23.4530    6.4570   34.7330 H   0  0  0  0  0  0  0  0  0  0  0  0
   21.9430    7.7380   32.4040 H   0  0  0  0  0  0  0  0  0  0  0  0
   22.9660    8.6940   33.4660 H   0  0  0  0  0  0  0  0  0  0  0  0
   24.8490    7.0550   32.8700 H   0  0  0  0  0  0  0  0  0  0  0  0
   23.7830    6.4760   31.5870 H   0  0  0  0  0  0  0  0  0  0  0  0
   26.2010    8.5720   29.4310 H   0  0  0  0  0  0  0  0  0  0  0  0
   26.5690    7.4610   30.7730 H   0  0  0  0  0  0  0  0  0  0  0  0
   25.3010    7.0450   29.5950 H   0  0  0  0  0  0  0  0  0  0  0  0
   24.9890    4.2340   27.0670 C   0  0  0  0  0  0  0  0  0  0  0  0
   23.7420    4.2500   27.6610 C   0  0  0  0  0  0  0  0  0  0  0  0
   23.6300    4.3290   29.0470 C   0  0  0  0  0  0  0  0  0  0  0  0
   22.2760    4.4200   29.6630 C   0  0  0  0  0  0  0  0  0  0  0  0
   22.0070    5.1980   30.5490 O   0  0  0  0  0  0  0  0  0  0  0  0
   21.3560    3.5960   29.1830 O   0  0  0  0  0  0  0  0  0  0  0  0
   24.7740    4.3680   29.8390 C   0  0  0  0  0  0  0  0  0  0  0  0
   26.0200    4.3280   29.2480 C   0  0  0  0  0  0  0  0  0  0  0  0
   26.1330    4.2710   27.8600 C   0  0  0  0  0  0  0  0  0  0  0  0
   27.4920    4.2560   27.2660 C   0  0  0  0  0  0  0  0  0  0  0  0
   28.5130    4.2720   27.9060 O   0  0  0  0  0  0  0  0  0  0  0  0
   27.4860    4.2240   25.9270 O   0  0  0  0  0  0  0  0  0  0  0  0
   25.0850    4.1940   25.9940 H   0  0  0  0  0  0  0  0  0  0  0  0
   22.8500    4.2330   27.0510 H   0  0  0  0  0  0  0  0  0  0  0  0
   21.6780    2.9770   28.4890 H   0  0  0  0  0  0  0  0  0  0  0  0
   24.6770    4.4110   30.9140 H   0  0  0  0  0  0  0  0  0  0  0  0
   26.9210    4.3470   29.8390 H   0  0  0  0  0  0  0  0  0  0  0  0
   28.3950    4.2180   25.5950 H   0  0  0  0  0  0  0  0  0  0  0  0
   19.1790    7.6880   30.3810 C   0  0  0  0  0  0  0  0  0  0  0  0
   18.4100    8.5010   29.8690 O   0  0  0  0  0  0  0  0  0  0  0  0
   18.8490    6.9600   31.5300 C   0  0  0  0  0  0  0  0  0  0  0  0
   17.9190    7.3450   31.9510 H   0  0  0  0  0  0  0  0  0  0  0  0
   18.7220    5.9080   31.2710 H   0  0  0  0  0  0  0  0  0  0  0  0
   19.6480    7.0580   32.2650 H   0  0  0  0  0  0  0  0  0  0  0  0
   18.6420    3.9310   34.6740 C   0  0  0  0  0  0  0  0  0  0  0  0
   18.7260    5.0390   34.1430 O   0  0  0  0  0  0  0  0  0  0  0  0
   17.4620    3.5260   35.3100 C   0  0  0  0  0  0  0  0  0  0  0  0
   16.6890    4.2790   35.1550 H   0  0  0  0  0  0  0  0  0  0  0  0
   17.1310    2.5750   34.8920 H   0  0  0  0  0  0  0  0  0  0  0  0
   17.6460    3.4090   36.3780 H   0  0  0  0  0  0  0  0  0  0  0  0
   19.8400    8.9580   26.7870 N   0  0  0  0  0  0  0  0  0  0  0  0
   20.2130    9.8390   27.1140 H   0  0  0  0  0  0  0  0  0  0  0  0
   19.0970    8.9300   25.6010 C   0  0  0  0  0  0  0  0  0  0  0  0
   18.0330    8.9600   25.8370 H   0  0  0  0  0  0  0  0  0  0  0  0
   19.3220    8.0150   25.0520 H   0  0  0  0  0  0  0  0  0  0  0  0
   19.3580    9.7920   24.9870 H   0  0  0  0  0  0  0  0  0  0  0  0
   20.3050    7.1180   35.1260 N   0  0  0  0  0  0  0  0  0  0  0  0
   19.9600    6.6060   34.3280 H   0  0  0  0  0  0  0  0  0  0  0  0
   19.3970    7.5820   36.0850 C   0  0  0  0  0  0  0  0  0  0  0  0
   19.8640    8.3670   36.6790 H   0  0  0  0  0  0  0  0  0  0  0  0
   19.1030    6.7590   36.7360 H   0  0  0  0  0  0  0  0  0  0  0  0
   18.5130    7.9810   35.5870 H   0  0  0  0  0  0  0  0  0  0  0  0
  1  2  1  0  0  0  0
  1 12  1  0  0  0  0
  1 66  1  0  0  0  0
  2  3  1  0  0  0  0
  2  5  1  0  0  0  0
  2 13  1  0  0  0  0
  3  4  2  0  0  0  0
  3 78  1  0  0  0  0
  5  6  1  0  0  0  0
  5 14  1  0  0  0  0
  5 15  1  0  0  0  0
  6  7  2  0  0  0  0
  6  8  1  0  0  0  0
  7  9  1  0  0  0  0
  7 16  1  0  0  0  0
  8 10  2  0  0  0  0
  8 17  1  0  0  0  0
  9 11  2  0  0  0  0
  9 18  1  0  0  0  0
 10 11  1  0  0  0  0
 10 19  1  0  0  0  0
 11 20  1  0  0  0  0
 21 22  1  0  0  0  0
 21 26  1  0  0  0  0
 21 72  1  0  0  0  0
 22 23  1  0  0  0  0
 22 25  1  0  0  0  0
 22 27  1  0  0  0  0
 23 24  2  0  0  0  0
 23 31  1  0  0  0  0
 25 28  1  0  0  0  0
 25 29  1  0  0  0  0
 25 30  1  0  0  0  0
 31 32  1  0  0  0  0
 31 39  1  0  0  0  0
 32 33  1  0  0  0  0
 32 35  1  0  0  0  0
 32 40  1  0  0  0  0
 33 34  2  0  0  0  0
 33 84  1  0  0  0  0
 35 36  1  0  0  0  0
 35 41  1  0  0  0  0
 35 42  1  0  0  0  0
 36 37  1  0  0  0  0
 36 43  1  0  0  0  0
 36 44  1  0  0  0  0
 37 38  1  0  0  0  0
 38 45  1  0  0  0  0
 38 46  1  0  0  0  0
 38 47  1  0  0  0  0
 48 49  1  0  0  0  0
 48 56  1  0  0  0  0
 48 60  1  0  0  0  0
 49 50  1  0  0  0  0
 49 61  1  0  0  0  0
 50 51  1  0  0  0  0
 50 54  1  0  0  0  0
 51 52  1  0  0  0  0
 51 53  1  0  0  0  0
 53 62  1  0  0  0  0
 54 55  1  0  0  0  0
 54 63  1  0  0  0  0
 55 56  1  0  0  0  0
 55 64  1  0  0  0  0
 56 57  1  0  0  0  0
 57 58  1  0  0  0  0
 57 59  1  0  0  0  0
 59 65  1  0  0  0  0
 66 67  1  0  0  0  0
 66 68  1  0  0  0  0
 68 69  1  0  0  0  0
 68 70  1  0  0  0  0
 68 71  1  0  0  0  0
 72 73  1  0  0  0  0
 72 74  1  0  0  0  0
 74 75  1  0  0  0  0
 74 76  1  0  0  0  0
 74 77  1  0  0  0  0
 78 79  1  0  0  0  0
 78 80  1  0  0  0  0
 80 81  1  0  0  0  0
 80 82  1  0  0  0  0
 80 83  1  0  0  0  0
 84 85  1  0  0  0  0
 84 86  1  0  0  0  0
 86 87  1  0  0  0  0
 86 88  1  0  0  0  0
 86 89  1  0  0  0  0
M  END
