 xtb: 6.6.1 (8d0f1dd)
          06102418523D

185184  0     0  0            999 V2000
   20.4480    7.5250   29.9060 N   0  0  0  0  0  0  0  0  0  0  0  0
   21.0550    8.2630   28.8030 C   0  0  0  0  0  0  0  0  0  0  0  0
   20.3000    8.0120   27.5020 C   0  0  0  0  0  0  0  0  0  0  0  0
   20.6308    7.1591   26.6993 O   0  0  0  0  0  0  0  0  0  0  0  0
   22.5216    7.8320   28.6648 C   0  0  0  0  0  0  0  0  0  0  0  0
   23.3628    8.7750   27.8528 C   0  0  0  0  0  0  0  0  0  0  0  0
   23.8700    9.9345   28.4269 C   0  0  0  0  0  0  0  0  0  0  0  0
   23.6926    8.4790   26.5371 C   0  0  0  0  0  0  0  0  0  0  0  0
   24.7044   10.7692   27.7058 C   0  0  0  0  0  0  0  0  0  0  0  0
   24.5251    9.3147   25.8136 C   0  0  0  0  0  0  0  0  0  0  0  0
   25.0395   10.4587   26.3988 C   0  0  0  0  0  0  0  0  0  0  0  0
   20.8688    6.6753   30.1656 H   0  0  0  0  0  0  0  0  0  0  0  0
   20.9929    9.3290   29.0476 H   0  0  0  0  0  0  0  0  0  0  0  0
   22.9521    7.7545   29.6640 H   0  0  0  0  0  0  0  0  0  0  0  0
   22.5300    6.8482   28.1934 H   0  0  0  0  0  0  0  0  0  0  0  0
   23.6313   10.1705   29.4555 H   0  0  0  0  0  0  0  0  0  0  0  0
   23.2897    7.5852   26.0780 H   0  0  0  0  0  0  0  0  0  0  0  0
   25.1056   11.6605   28.1709 H   0  0  0  0  0  0  0  0  0  0  0  0
   24.7832    9.0670   24.7915 H   0  0  0  0  0  0  0  0  0  0  0  0
   25.7037   11.1047   25.8388 H   0  0  0  0  0  0  0  0  0  0  0  0
   19.6950    3.1310   34.6090 N   0  0  0  0  0  0  0  0  0  0  0  0
   20.9110    3.3570   33.8120 C   0  0  0  0  0  0  0  0  0  0  0  0
   21.6070    4.5780   34.4040 C   0  0  0  0  0  0  0  0  0  0  0  0
   21.7984    4.5970   35.6126 O   0  0  0  0  0  0  0  0  0  0  0  0
   20.5602    3.4080   32.3307 C   0  0  0  0  0  0  0  0  0  0  0  0
   19.6802    2.3763   35.2345 H   0  0  0  0  0  0  0  0  0  0  0  0
   21.5699    2.5040   34.0021 H   0  0  0  0  0  0  0  0  0  0  0  0
   21.4440    3.5096   31.7581 H   0  0  0  0  0  0  0  0  0  0  0  0
   20.0818    2.5024   32.0491 H   0  0  0  0  0  0  0  0  0  0  0  0
   19.9012    4.2156   32.1332 H   0  0  0  0  0  0  0  0  0  0  0  0
   21.9810    5.5880   33.6130 N   0  0  0  0  0  0  0  0  0  0  0  0
   22.6040    6.7610   34.2230 C   0  0  0  0  0  0  0  0  0  0  0  0
   21.6700    7.4140   35.2370 C   0  0  0  0  0  0  0  0  0  0  0  0
   22.1244    8.0479   36.1676 O   0  0  0  0  0  0  0  0  0  0  0  0
   23.1004    7.7510   33.1751 C   0  0  0  0  0  0  0  0  0  0  0  0
   24.3821    7.2391   32.5335 C   0  0  0  0  0  0  0  0  0  0  0  0
   25.0714    8.4591   31.3588 S   0  0  0  0  0  0  0  0  0  0  0  0
   26.3776    7.4231   30.6484 C   0  0  0  0  0  0  0  0  0  0  0  0
   21.8708    5.5704   32.6359 H   0  0  0  0  0  0  0  0  0  0  0  0
   23.4599    6.4238   34.8228 H   0  0  0  0  0  0  0  0  0  0  0  0
   22.3370    7.9165   32.4133 H   0  0  0  0  0  0  0  0  0  0  0  0
   23.3013    8.7016   33.6715 H   0  0  0  0  0  0  0  0  0  0  0  0
   25.1403    7.0587   33.2964 H   0  0  0  0  0  0  0  0  0  0  0  0
   24.1963    6.3280   31.9655 H   0  0  0  0  0  0  0  0  0  0  0  0
   26.9189    8.0411   29.9381 H   0  0  0  0  0  0  0  0  0  0  0  0
   27.0475    7.0828   31.4356 H   0  0  0  0  0  0  0  0  0  0  0  0
   25.9313    6.5752   30.1333 H   0  0  0  0  0  0  0  0  0  0  0  0
   24.5000    3.0810   36.0390 N   0  0  0  0  0  0  0  0  0  0  0  0
   25.7790    3.3740   35.4110 C   0  0  0  0  0  0  0  0  0  0  0  0
   26.3480    4.6150   36.0760 C   0  0  0  0  0  0  0  0  0  0  0  0
   25.6958    5.6345   36.1625 O   0  0  0  0  0  0  0  0  0  0  0  0
   25.6741    3.6306   33.8928 C   0  0  0  0  0  0  0  0  0  0  0  0
   27.0329    3.5028   33.2915 C   0  0  0  0  0  0  0  0  0  0  0  0
   27.5453    2.3631   32.7406 C   0  0  0  0  0  0  0  0  0  0  0  0
   28.0927    4.4621   33.2928 C   0  0  0  0  0  0  0  0  0  0  0  0
   28.8533    2.5475   32.3912 N   0  0  0  0  0  0  0  0  0  0  0  0
   29.2188    3.8217   32.7159 C   0  0  0  0  0  0  0  0  0  0  0  0
   28.2038    5.7885   33.7128 C   0  0  0  0  0  0  0  0  0  0  0  0
   30.4394    4.4700   32.5777 C   0  0  0  0  0  0  0  0  0  0  0  0
   29.4170    6.4233   33.5740 C   0  0  0  0  0  0  0  0  0  0  0  0
   30.5225    5.7726   33.0174 C   0  0  0  0  0  0  0  0  0  0  0  0
   24.0207    3.8438   36.4372 H   0  0  0  0  0  0  0  0  0  0  0  0
   26.4169    2.4967   35.5632 H   0  0  0  0  0  0  0  0  0  0  0  0
   25.0125    2.8697   33.4749 H   0  0  0  0  0  0  0  0  0  0  0  0
   25.2447    4.6202   33.7320 H   0  0  0  0  0  0  0  0  0  0  0  0
   27.0492    1.4308   32.5438 H   0  0  0  0  0  0  0  0  0  0  0  0
   29.4208    1.8710   31.9075 H   0  0  0  0  0  0  0  0  0  0  0  0
   27.3590    6.3020   34.1513 H   0  0  0  0  0  0  0  0  0  0  0  0
   31.2900    3.9650   32.1391 H   0  0  0  0  0  0  0  0  0  0  0  0
   29.5232    7.4500   33.8998 H   0  0  0  0  0  0  0  0  0  0  0  0
   31.4597    6.3067   32.9301 H   0  0  0  0  0  0  0  0  0  0  0  0
   26.1310   -2.7720   28.8740 N   0  0  0  0  0  0  0  0  0  0  0  0
   26.2430   -1.3220   28.8680 C   0  0  0  0  0  0  0  0  0  0  0  0
   26.6670   -0.8020   30.2320 C   0  0  0  0  0  0  0  0  0  0  0  0
   27.3561    0.1972   30.3637 O   0  0  0  0  0  0  0  0  0  0  0  0
   24.9373   -0.7322   28.3081 C   0  0  0  0  0  0  0  0  0  0  0  0
   24.8251   -1.0898   26.8169 C   0  0  0  0  0  0  0  0  0  0  0  0
   24.9050    0.7762   28.4908 C   0  0  0  0  0  0  0  0  0  0  0  0
   23.4565   -0.7858   26.2193 C   0  0  0  0  0  0  0  0  0  0  0  0
   25.3166   -3.1680   28.4955 H   0  0  0  0  0  0  0  0  0  0  0  0
   27.0621   -1.0345   28.1938 H   0  0  0  0  0  0  0  0  0  0  0  0
   24.0978   -1.1762   28.8510 H   0  0  0  0  0  0  0  0  0  0  0  0
   25.5874   -0.5332   26.2699 H   0  0  0  0  0  0  0  0  0  0  0  0
   25.0351   -2.1514   26.6715 H   0  0  0  0  0  0  0  0  0  0  0  0
   23.9673    1.1847   28.1264 H   0  0  0  0  0  0  0  0  0  0  0  0
   25.0048    1.0492   29.5380 H   0  0  0  0  0  0  0  0  0  0  0  0
   25.7200    1.2279   27.9320 H   0  0  0  0  0  0  0  0  0  0  0  0
   23.4213   -1.1258   25.1863 H   0  0  0  0  0  0  0  0  0  0  0  0
   22.6709   -1.2919   26.7769 H   0  0  0  0  0  0  0  0  0  0  0  0
   23.2518    0.2810   26.2283 H   0  0  0  0  0  0  0  0  0  0  0  0
   20.4620   -4.7880   29.5220 N   0  0  0  0  0  0  0  0  0  0  0  0
   20.4690   -3.4340   30.0610 C   0  0  0  0  0  0  0  0  0  0  0  0
   19.0810   -2.8090   30.1460 C   0  0  0  0  0  0  0  0  0  0  0  0
   18.9214   -1.6100   30.0961 O   0  0  0  0  0  0  0  0  0  0  0  0
   21.3805   -2.5462   29.1834 C   0  0  0  0  0  0  0  0  0  0  0  0
   21.6659   -1.1992   29.7401 C   0  0  0  0  0  0  0  0  0  0  0  0
   22.2803   -1.0034   30.9505 N   0  0  0  0  0  0  0  0  0  0  0  0
   21.5405    0.0490   29.1943 C   0  0  0  0  0  0  0  0  0  0  0  0
   22.4877    0.3251   31.0839 C   0  0  0  0  0  0  0  0  0  0  0  0
   22.0621    0.9779   30.0380 N   0  0  0  0  0  0  0  0  0  0  0  0
   19.8360   -4.9778   28.7884 H   0  0  0  0  0  0  0  0  0  0  0  0
   20.8888   -3.5014   31.0700 H   0  0  0  0  0  0  0  0  0  0  0  0
   22.3203   -3.0913   29.0522 H   0  0  0  0  0  0  0  0  0  0  0  0
   20.9098   -2.4199   28.2068 H   0  0  0  0  0  0  0  0  0  0  0  0
   22.5066   -1.7158   31.6229 H   0  0  0  0  0  0  0  0  0  0  0  0
   21.0985    0.3346   28.2576 H   0  0  0  0  0  0  0  0  0  0  0  0
   22.9529    0.7678   31.9467 H   0  0  0  0  0  0  0  0  0  0  0  0
   25.7344    3.9363   27.5973 C   0  0  0  0  0  0  0  0  0  0  0  0
   24.4611    4.2659   28.0210 C   0  0  0  0  0  0  0  0  0  0  0  0
   24.1479    4.2111   29.3767 C   0  0  0  0  0  0  0  0  0  0  0  0
   25.1229    3.8549   30.3002 C   0  0  0  0  0  0  0  0  0  0  0  0
   26.3786    3.4731   29.8679 C   0  0  0  0  0  0  0  0  0  0  0  0
   26.6844    3.4898   28.5133 C   0  0  0  0  0  0  0  0  0  0  0  0
   28.0250    3.0381   28.0165 C   0  0  0  0  0  0  0  0  0  0  0  0
   22.7671    4.5282   29.8497 C   0  0  0  0  0  0  0  0  0  0  0  0
   28.5668    3.5628   27.0795 O   0  0  0  0  0  0  0  0  0  0  0  0
   28.5885    2.0098   28.6500 O   0  0  0  0  0  0  0  0  0  0  0  0
   21.8111    3.6862   29.4861 O   0  0  0  0  0  0  0  0  0  0  0  0
   22.5063    5.4768   30.5534 O   0  0  0  0  0  0  0  0  0  0  0  0
   26.0017    3.9900   26.5532 H   0  0  0  0  0  0  0  0  0  0  0  0
   23.7124    4.5779   27.3086 H   0  0  0  0  0  0  0  0  0  0  0  0
   24.8918    3.8489   31.3536 H   0  0  0  0  0  0  0  0  0  0  0  0
   27.1194    3.1716   30.5900 H   0  0  0  0  0  0  0  0  0  0  0  0
   28.0361    1.5322   29.3039 H   0  0  0  0  0  0  0  0  0  0  0  0
   22.0712    2.7439   29.3712 H   0  0  0  0  0  0  0  0  0  0  0  0
   19.3173    7.9761   30.4807 C   0  0  0  0  0  0  0  0  0  0  0  0
   18.7692    9.0058   30.1182 O   0  0  0  0  0  0  0  0  0  0  0  0
   18.7813    7.1083   31.5898 C   0  0  0  0  0  0  0  0  0  0  0  0
   18.2287    7.7190   32.2988 H   0  0  0  0  0  0  0  0  0  0  0  0
   18.0931    6.3789   31.1653 H   0  0  0  0  0  0  0  0  0  0  0  0
   19.5766    6.5780   32.1035 H   0  0  0  0  0  0  0  0  0  0  0  0
   18.7632    4.1028   34.7166 C   0  0  0  0  0  0  0  0  0  0  0  0
   18.8219    5.1342   34.0754 O   0  0  0  0  0  0  0  0  0  0  0  0
   17.6394    3.7889   35.6756 C   0  0  0  0  0  0  0  0  0  0  0  0
   16.8443    4.5191   35.5458 H   0  0  0  0  0  0  0  0  0  0  0  0
   17.2493    2.7886   35.5014 H   0  0  0  0  0  0  0  0  0  0  0  0
   18.0122    3.8508   36.6967 H   0  0  0  0  0  0  0  0  0  0  0  0
   23.8483    1.9186   35.8330 C   0  0  0  0  0  0  0  0  0  0  0  0
   24.2622    1.0407   35.0911 O   0  0  0  0  0  0  0  0  0  0  0  0
   22.5839    1.7867   36.6515 C   0  0  0  0  0  0  0  0  0  0  0  0
   22.0022    2.7041   36.5821 H   0  0  0  0  0  0  0  0  0  0  0  0
   22.0066    0.9309   36.3081 H   0  0  0  0  0  0  0  0  0  0  0  0
   22.8548    1.6305   37.6941 H   0  0  0  0  0  0  0  0  0  0  0  0
   27.1102   -3.5916   29.3426 C   0  0  0  0  0  0  0  0  0  0  0  0
   28.1369   -3.1684   29.8206 O   0  0  0  0  0  0  0  0  0  0  0  0
   26.7572   -5.0596   29.2286 C   0  0  0  0  0  0  0  0  0  0  0  0
   25.7885   -5.2578   29.6856 H   0  0  0  0  0  0  0  0  0  0  0  0
   26.7146   -5.3485   28.1800 H   0  0  0  0  0  0  0  0  0  0  0  0
   27.5199   -5.6518   29.7268 H   0  0  0  0  0  0  0  0  0  0  0  0
   21.5301   -5.6104   29.7128 C   0  0  0  0  0  0  0  0  0  0  0  0
   22.4673   -5.2965   30.4154 O   0  0  0  0  0  0  0  0  0  0  0  0
   21.4107   -6.9292   28.9875 C   0  0  0  0  0  0  0  0  0  0  0  0
   21.5223   -6.7704   27.9155 H   0  0  0  0  0  0  0  0  0  0  0  0
   22.1940   -7.6015   29.3275 H   0  0  0  0  0  0  0  0  0  0  0  0
   20.4384   -7.3812   29.1725 H   0  0  0  0  0  0  0  0  0  0  0  0
   19.2577    8.8426   27.3321 N   0  0  0  0  0  0  0  0  0  0  0  0
   18.9622    9.3792   28.1045 H   0  0  0  0  0  0  0  0  0  0  0  0
   18.4126    8.7877   26.1654 C   0  0  0  0  0  0  0  0  0  0  0  0
   17.4051    8.4567   26.4236 H   0  0  0  0  0  0  0  0  0  0  0  0
   18.8585    8.0807   25.4668 H   0  0  0  0  0  0  0  0  0  0  0  0
   18.3559    9.7725   25.6987 H   0  0  0  0  0  0  0  0  0  0  0  0
   20.3566    7.3554   34.9547 N   0  0  0  0  0  0  0  0  0  0  0  0
   20.0034    6.7183   34.2940 H   0  0  0  0  0  0  0  0  0  0  0  0
   19.3767    7.9534   35.8287 C   0  0  0  0  0  0  0  0  0  0  0  0
   19.9093    8.4987   36.6063 H   0  0  0  0  0  0  0  0  0  0  0  0
   18.7458    7.1883   36.2833 H   0  0  0  0  0  0  0  0  0  0  0  0
   18.7489    8.6426   35.2620 H   0  0  0  0  0  0  0  0  0  0  0  0
   27.6006    4.4798   36.5516 N   0  0  0  0  0  0  0  0  0  0  0  0
   28.0968    3.6492   36.3877 H   0  0  0  0  0  0  0  0  0  0  0  0
   28.3148    5.5756   37.1633 C   0  0  0  0  0  0  0  0  0  0  0  0
   29.1622    5.8761   36.5448 H   0  0  0  0  0  0  0  0  0  0  0  0
   28.6707    5.2884   38.1534 H   0  0  0  0  0  0  0  0  0  0  0  0
   27.6193    6.4082   37.2549 H   0  0  0  0  0  0  0  0  0  0  0  0
   26.1253   -1.4670   31.2651 N   0  0  0  0  0  0  0  0  0  0  0  0
   25.6004   -2.2736   31.0694 H   0  0  0  0  0  0  0  0  0  0  0  0
   26.4848   -1.2464   32.6497 C   0  0  0  0  0  0  0  0  0  0  0  0
   27.4497   -0.7434   32.6821 H   0  0  0  0  0  0  0  0  0  0  0  0
   26.5713   -2.2037   33.1611 H   0  0  0  0  0  0  0  0  0  0  0  0
   25.7380   -0.6343   33.1612 H   0  0  0  0  0  0  0  0  0  0  0  0
   18.0651   -3.6896   30.2722 N   0  0  0  0  0  0  0  0  0  0  0  0
   18.2538   -4.6424   30.4148 H   0  0  0  0  0  0  0  0  0  0  0  0
   16.6894   -3.2534   30.3646 C   0  0  0  0  0  0  0  0  0  0  0  0
   16.0907   -3.7181   29.5806 H   0  0  0  0  0  0  0  0  0  0  0  0
   16.6798   -2.1725   30.2346 H   0  0  0  0  0  0  0  0  0  0  0  0
   16.2644   -3.5036   31.3371 H   0  0  0  0  0  0  0  0  0  0  0  0
  1  2  1  0  0  0  0
  2  3  1  0  0  0  0
  3  4  2  0  0  0  0
  2  5  1  0  0  0  0
  5  6  1  0  0  0  0
  6  7  4  0  0  0  0
  6  8  4  0  0  0  0
  7  9  4  0  0  0  0
  8 10  4  0  0  0  0
  9 11  4  0  0  0  0
 10 11  4  0  0  0  0
  1 12  1  0  0  0  0
  2 13  1  0  0  0  0
  5 14  1  0  0  0  0
  5 15  1  0  0  0  0
  7 16  1  0  0  0  0
  8 17  1  0  0  0  0
  9 18  1  0  0  0  0
 10 19  1  0  0  0  0
 11 20  1  0  0  0  0
 21 22  1  0  0  0  0
 22 23  1  0  0  0  0
 23 24  2  0  0  0  0
 22 25  1  0  0  0  0
 21 26  1  0  0  0  0
 22 27  1  0  0  0  0
 25 28  1  0  0  0  0
 25 29  1  0  0  0  0
 25 30  1  0  0  0  0
 23 31  4  0  0  0  0
 31 32  1  0  0  0  0
 32 33  1  0  0  0  0
 33 34  2  0  0  0  0
 32 35  1  0  0  0  0
 35 36  1  0  0  0  0
 36 37  1  0  0  0  0
 37 38  1  0  0  0  0
 31 39  1  0  0  0  0
 32 40  1  0  0  0  0
 35 41  1  0  0  0  0
 35 42  1  0  0  0  0
 36 43  1  0  0  0  0
 36 44  1  0  0  0  0
 38 45  1  0  0  0  0
 38 46  1  0  0  0  0
 38 47  1  0  0  0  0
 48 49  1  0  0  0  0
 49 50  1  0  0  0  0
 50 51  2  0  0  0  0
 49 52  1  0  0  0  0
 52 53  1  0  0  0  0
 53 54  2  0  0  0  0
 53 55  4  0  0  0  0
 54 56  4  0  0  0  0
 55 57  4  0  0  0  0
 56 57  1  0  0  0  0
 55 58  4  0  0  0  0
 57 59  4  0  0  0  0
 58 60  2  0  0  0  0
 59 61  4  0  0  0  0
 60 61  4  0  0  0  0
 48 62  1  0  0  0  0
 49 63  1  0  0  0  0
 52 64  1  0  0  0  0
 52 65  1  0  0  0  0
 54 66  1  0  0  0  0
 56 67  1  0  0  0  0
 58 68  1  0  0  0  0
 59 69  1  0  0  0  0
 60 70  1  0  0  0  0
 61 71  1  0  0  0  0
 72 73  1  0  0  0  0
 73 74  1  0  0  0  0
 74 75  2  0  0  0  0
 73 76  1  0  0  0  0
 76 77  1  0  0  0  0
 76 78  1  0  0  0  0
 77 79  1  0  0  0  0
 72 80  1  0  0  0  0
 73 81  1  0  0  0  0
 76 82  1  0  0  0  0
 77 83  1  0  0  0  0
 77 84  1  0  0  0  0
 78 85  1  0  0  0  0
 78 86  1  0  0  0  0
 78 87  1  0  0  0  0
 79 88  1  0  0  0  0
 79 89  1  0  0  0  0
 79 90  1  0  0  0  0
 91 92  1  0  0  0  0
 92 93  1  0  0  0  0
 93 94  2  0  0  0  0
 92 95  1  0  0  0  0
 95 96  1  0  0  0  0
 96 97  1  0  0  0  0
 96 98  2  0  0  0  0
 97 99  4  0  0  0  0
 98100  4  0  0  0  0
 99100  2  0  0  0  0
 91101  1  0  0  0  0
 92102  1  0  0  0  0
 95103  1  0  0  0  0
 95104  1  0  0  0  0
 97105  1  0  0  0  0
 98106  1  0  0  0  0
 99107  1  0  0  0  0
108109  4  0  0  0  0
109110  4  0  0  0  0
110111  4  0  0  0  0
111112  4  0  0  0  0
108113  4  0  0  0  0
112113  4  0  0  0  0
113114  1  0  0  0  0
110115  1  0  0  0  0
114116  2  0  0  0  0
114117  1  0  0  0  0
115118  1  0  0  0  0
115119  2  0  0  0  0
108120  1  0  0  0  0
109121  1  0  0  0  0
111122  1  0  0  0  0
112123  1  0  0  0  0
117124  1  0  0  0  0
118125  1  0  0  0  0
  1126  4  0  0  0  0
126127  2  0  0  0  0
126128  1  0  0  0  0
128129  1  0  0  0  0
128130  1  0  0  0  0
128131  1  0  0  0  0
 21132  4  0  0  0  0
132133  2  0  0  0  0
132134  1  0  0  0  0
134135  1  0  0  0  0
134136  1  0  0  0  0
134137  1  0  0  0  0
 48138  4  0  0  0  0
138139  2  0  0  0  0
138140  1  0  0  0  0
140141  1  0  0  0  0
140142  1  0  0  0  0
140143  1  0  0  0  0
 72144  4  0  0  0  0
144145  2  0  0  0  0
144146  1  0  0  0  0
146147  1  0  0  0  0
146148  1  0  0  0  0
146149  1  0  0  0  0
 91150  4  0  0  0  0
150151  2  0  0  0  0
150152  1  0  0  0  0
152153  1  0  0  0  0
152154  1  0  0  0  0
152155  1  0  0  0  0
  3156  4  0  0  0  0
156157  1  0  0  0  0
156158  1  0  0  0  0
158159  1  0  0  0  0
158160  1  0  0  0  0
158161  1  0  0  0  0
 33162  4  0  0  0  0
162163  1  0  0  0  0
162164  1  0  0  0  0
164165  1  0  0  0  0
164166  1  0  0  0  0
164167  1  0  0  0  0
 50168  4  0  0  0  0
168169  1  0  0  0  0
168170  1  0  0  0  0
170171  1  0  0  0  0
170172  1  0  0  0  0
170173  1  0  0  0  0
 74174  4  0  0  0  0
174175  1  0  0  0  0
174176  1  0  0  0  0
176177  1  0  0  0  0
176178  1  0  0  0  0
176179  1  0  0  0  0
 93180  4  0  0  0  0
180181  1  0  0  0  0
180182  1  0  0  0  0
182183  1  0  0  0  0
182184  1  0  0  0  0
182185  1  0  0  0  0
M  END
