 xtb: 6.6.1 (8d0f1dd)
          03042414123D

110109  0     0  0            999 V2000
   20.3890    7.3970   29.8580 N   0  0  0  0  0  0  0  0  0  0  0  0
   20.9700    8.0870   28.7390 C   0  0  0  0  0  0  0  0  0  0  0  0
   20.1000    7.8670   27.5400 C   0  0  0  0  0  0  0  0  0  0  0  0
   19.6510    6.7540   27.2770 O   0  0  0  0  0  0  0  0  0  0  0  0
   22.3910    7.5940   28.4600 C   0  0  0  0  0  0  0  0  0  0  0  0
   23.1480    8.4470   27.4820 C   0  0  0  0  0  0  0  0  0  0  0  0
   23.5530    9.7280   27.8260 C   0  0  0  0  0  0  0  0  0  0  0  0
   23.4550    7.9700   26.2170 C   0  0  0  0  0  0  0  0  0  0  0  0
   24.2490   10.5130   26.9270 C   0  0  0  0  0  0  0  0  0  0  0  0
   24.1520    8.7530   25.3170 C   0  0  0  0  0  0  0  0  0  0  0  0
   24.5490   10.0260   25.6730 C   0  0  0  0  0  0  0  0  0  0  0  0
   20.9040    6.6450   30.2930 H   0  0  0  0  0  0  0  0  0  0  0  0
   21.0480    9.1460   28.9880 H   0  0  0  0  0  0  0  0  0  0  0  0
   22.9550    7.5630   29.3920 H   0  0  0  0  0  0  0  0  0  0  0  0
   22.3530    6.5780   28.0680 H   0  0  0  0  0  0  0  0  0  0  0  0
   23.3170   10.1130   28.8190 H   0  0  0  0  0  0  0  0  0  0  0  0
   23.1410    6.9650   25.9360 H   0  0  0  0  0  0  0  0  0  0  0  0
   24.5620   11.5180   27.2100 H   0  0  0  0  0  0  0  0  0  0  0  0
   24.3880    8.3660   24.3250 H   0  0  0  0  0  0  0  0  0  0  0  0
   25.0970   10.6450   24.9630 H   0  0  0  0  0  0  0  0  0  0  0  0
   26.0290   -2.8890   28.8750 N   0  0  0  0  0  0  0  0  0  0  0  0
   26.2360   -1.4740   29.0030 C   0  0  0  0  0  0  0  0  0  0  0  0
   26.7180   -1.0760   30.3640 C   0  0  0  0  0  0  0  0  0  0  0  0
   27.6720   -0.3070   30.4820 O   0  0  0  0  0  0  0  0  0  0  0  0
   24.9380   -0.7090   28.6860 C   0  0  0  0  0  0  0  0  0  0  0  0
   24.6140   -0.8020   27.1930 C   0  0  0  0  0  0  0  0  0  0  0  0
   25.0580    0.7440   29.1190 C   0  0  0  0  0  0  0  0  0  0  0  0
   23.2050   -0.3770   26.8460 C   0  0  0  0  0  0  0  0  0  0  0  0
   25.0860   -3.2510   28.8790 H   0  0  0  0  0  0  0  0  0  0  0  0
   27.0470   -1.1820   28.3360 H   0  0  0  0  0  0  0  0  0  0  0  0
   24.1060   -1.1690   29.2190 H   0  0  0  0  0  0  0  0  0  0  0  0
   25.3070   -0.1770   26.6310 H   0  0  0  0  0  0  0  0  0  0  0  0
   24.7520   -1.8290   26.8540 H   0  0  0  0  0  0  0  0  0  0  0  0
   24.1330    1.2700   28.8870 H   0  0  0  0  0  0  0  0  0  0  0  0
   25.2440    0.7910   30.1910 H   0  0  0  0  0  0  0  0  0  0  0  0
   25.8860    1.2150   28.5870 H   0  0  0  0  0  0  0  0  0  0  0  0
   23.0510   -0.4710   25.7710 H   0  0  0  0  0  0  0  0  0  0  0  0
   22.4930   -1.0140   27.3720 H   0  0  0  0  0  0  0  0  0  0  0  0
   23.0540    0.6600   27.1450 H   0  0  0  0  0  0  0  0  0  0  0  0
   20.2430   -4.9520   29.7770 N   0  0  0  0  0  0  0  0  0  0  0  0
   20.3490   -3.6130   30.3040 C   0  0  0  0  0  0  0  0  0  0  0  0
   19.0140   -2.9150   30.3880 C   0  0  0  0  0  0  0  0  0  0  0  0
   18.7370   -2.2050   31.3520 O   0  0  0  0  0  0  0  0  0  0  0  0
   21.3040   -2.7790   29.4450 C   0  0  0  0  0  0  0  0  0  0  0  0
   21.4850   -1.3760   29.9350 C   0  0  0  0  0  0  0  0  0  0  0  0
   22.1010   -1.0810   31.1340 N   0  0  0  0  0  0  0  0  0  0  0  0
   21.1310   -0.1880   29.3910 C   0  0  0  0  0  0  0  0  0  0  0  0
   22.1180    0.2300   31.3050 C   0  0  0  0  0  0  0  0  0  0  0  0
   21.5360    0.7940   30.2620 N   0  0  0  0  0  0  0  0  0  0  0  0
   20.7180   -5.1800   28.9150 H   0  0  0  0  0  0  0  0  0  0  0  0
   20.7750   -3.6490   31.3050 H   0  0  0  0  0  0  0  0  0  0  0  0
   22.2830   -3.2590   29.4170 H   0  0  0  0  0  0  0  0  0  0  0  0
   20.9310   -2.7370   28.4220 H   0  0  0  0  0  0  0  0  0  0  0  0
   22.5450   -1.7340   31.7470 H   0  0  0  0  0  0  0  0  0  0  0  0
   20.6260    0.0800   28.4630 H   0  0  0  0  0  0  0  0  0  0  0  0
   22.5650    0.6670   32.1970 H   0  0  0  0  0  0  0  0  0  0  0  0
   23.6640    3.3940   26.9050 C   0  0  0  0  0  0  0  0  0  0  0  0
   22.4060    3.3560   27.4660 C   0  0  0  0  0  0  0  0  0  0  0  0
   22.1930    3.8900   28.7380 C   0  0  0  0  0  0  0  0  0  0  0  0
   20.8420    3.8500   29.3400 C   0  0  0  0  0  0  0  0  0  0  0  0
   20.3750    4.8460   29.8540 O   0  0  0  0  0  0  0  0  0  0  0  0
   20.1290    2.7060   29.3200 O   0  0  0  0  0  0  0  0  0  0  0  0
   23.2540    4.4630   29.4420 C   0  0  0  0  0  0  0  0  0  0  0  0
   24.5120    4.5000   28.8810 C   0  0  0  0  0  0  0  0  0  0  0  0
   24.7260    3.9650   27.6100 C   0  0  0  0  0  0  0  0  0  0  0  0
   26.0750    4.0100   27.0050 C   0  0  0  0  0  0  0  0  0  0  0  0
   26.9630    4.6370   27.5470 O   0  0  0  0  0  0  0  0  0  0  0  0
   26.3190    3.3560   25.8530 O   0  0  0  0  0  0  0  0  0  0  0  0
   23.8290    2.9790   25.9210 H   0  0  0  0  0  0  0  0  0  0  0  0
   21.5850    2.9120   26.9220 H   0  0  0  0  0  0  0  0  0  0  0  0
   20.5170    1.9400   29.7630 H   0  0  0  0  0  0  0  0  0  0  0  0
   23.0880    4.8770   30.4260 H   0  0  0  0  0  0  0  0  0  0  0  0
   25.3320    4.9470   29.4240 H   0  0  0  0  0  0  0  0  0  0  0  0
   27.2420    3.1510   25.6530 H   0  0  0  0  0  0  0  0  0  0  0  0
   19.1790    7.6880   30.3810 C   0  0  0  0  0  0  0  0  0  0  0  0
   18.4100    8.5010   29.8690 O   0  0  0  0  0  0  0  0  0  0  0  0
   18.8490    6.9600   31.5300 C   0  0  0  0  0  0  0  0  0  0  0  0
   17.9190    7.3450   31.9510 H   0  0  0  0  0  0  0  0  0  0  0  0
   18.7220    5.9080   31.2710 H   0  0  0  0  0  0  0  0  0  0  0  0
   19.6480    7.0580   32.2650 H   0  0  0  0  0  0  0  0  0  0  0  0
   27.0690   -3.7390   28.7520 C   0  0  0  0  0  0  0  0  0  0  0  0
   28.2270   -3.3310   28.6590 O   0  0  0  0  0  0  0  0  0  0  0  0
   26.7750   -5.0970   28.5790 C   0  0  0  0  0  0  0  0  0  0  0  0
   26.8260   -5.6060   29.5420 H   0  0  0  0  0  0  0  0  0  0  0  0
   25.7720   -5.2020   28.1650 H   0  0  0  0  0  0  0  0  0  0  0  0
   27.4990   -5.5420   27.8950 H   0  0  0  0  0  0  0  0  0  0  0  0
   19.5510   -5.9560   30.3430 C   0  0  0  0  0  0  0  0  0  0  0  0
   18.8280   -5.7870   31.3220 O   0  0  0  0  0  0  0  0  0  0  0  0
   19.6690   -7.2090   29.7300 C   0  0  0  0  0  0  0  0  0  0  0  0
   20.1500   -7.9060   30.4180 H   0  0  0  0  0  0  0  0  0  0  0  0
   18.6780   -7.5820   29.4690 H   0  0  0  0  0  0  0  0  0  0  0  0
   20.2720   -7.1170   28.8260 H   0  0  0  0  0  0  0  0  0  0  0  0
   19.8390    8.9570   26.7880 N   0  0  0  0  0  0  0  0  0  0  0  0
   20.2160    9.8370   27.1100 H   0  0  0  0  0  0  0  0  0  0  0  0
   19.0870    8.9290   25.6070 C   0  0  0  0  0  0  0  0  0  0  0  0
   18.0260    8.9590   25.8510 H   0  0  0  0  0  0  0  0  0  0  0  0
   19.3080    8.0140   25.0570 H   0  0  0  0  0  0  0  0  0  0  0  0
   19.3440    9.7910   24.9920 H   0  0  0  0  0  0  0  0  0  0  0  0
   26.0530   -1.5570   31.4340 N   0  0  0  0  0  0  0  0  0  0  0  0
   25.2150   -2.1110   31.3230 H   0  0  0  0  0  0  0  0  0  0  0  0
   26.5260   -1.2890   32.7240 C   0  0  0  0  0  0  0  0  0  0  0  0
   27.5950   -1.0840   32.6850 H   0  0  0  0  0  0  0  0  0  0  0  0
   26.3440   -2.1520   33.3650 H   0  0  0  0  0  0  0  0  0  0  0  0
   26.0040   -0.4230   33.1300 H   0  0  0  0  0  0  0  0  0  0  0  0
   18.1770   -3.0820   29.3550 N   0  0  0  0  0  0  0  0  0  0  0  0
   18.5270   -3.7370   28.6700 H   0  0  0  0  0  0  0  0  0  0  0  0
   16.9360   -2.4700   29.1410 C   0  0  0  0  0  0  0  0  0  0  0  0
   16.4570   -2.9140   28.2690 H   0  0  0  0  0  0  0  0  0  0  0  0
   17.0800   -1.4030   28.9730 H   0  0  0  0  0  0  0  0  0  0  0  0
   16.3030   -2.6150   30.0170 H   0  0  0  0  0  0  0  0  0  0  0  0
  1  2  1  0  0  0  0
  2  3  1  0  0  0  0
  3  4  2  0  0  0  0
  2  5  1  0  0  0  0
  5  6  1  0  0  0  0
  6  7  4  0  0  0  0
  6  8  4  0  0  0  0
  7  9  4  0  0  0  0
  8 10  4  0  0  0  0
  9 11  4  0  0  0  0
 10 11  4  0  0  0  0
  1 12  1  0  0  0  0
  2 13  1  0  0  0  0
  5 14  1  0  0  0  0
  5 15  1  0  0  0  0
  7 16  1  0  0  0  0
  8 17  1  0  0  0  0
  9 18  1  0  0  0  0
 10 19  1  0  0  0  0
 11 20  1  0  0  0  0
 21 22  1  0  0  0  0
 22 23  1  0  0  0  0
 23 24  2  0  0  0  0
 22 25  1  0  0  0  0
 25 26  1  0  0  0  0
 25 27  1  0  0  0  0
 26 28  1  0  0  0  0
 21 29  1  0  0  0  0
 22 30  1  0  0  0  0
 25 31  1  0  0  0  0
 26 32  1  0  0  0  0
 26 33  1  0  0  0  0
 27 34  1  0  0  0  0
 27 35  1  0  0  0  0
 27 36  1  0  0  0  0
 28 37  1  0  0  0  0
 28 38  1  0  0  0  0
 28 39  1  0  0  0  0
 40 41  1  0  0  0  0
 41 42  1  0  0  0  0
 42 43  2  0  0  0  0
 41 44  1  0  0  0  0
 44 45  1  0  0  0  0
 45 46  1  0  0  0  0
 45 47  2  0  0  0  0
 46 48  4  0  0  0  0
 47 49  4  0  0  0  0
 48 49  2  0  0  0  0
 40 50  1  0  0  0  0
 41 51  1  0  0  0  0
 44 52  1  0  0  0  0
 44 53  1  0  0  0  0
 46 54  1  0  0  0  0
 47 55  1  0  0  0  0
 48 56  1  0  0  0  0
 57 58  4  0  0  0  0
 58 59  4  0  0  0  0
 59 60  1  0  0  0  0
 60 61  2  0  0  0  0
 60 62  1  0  0  0  0
 59 63  4  0  0  0  0
 63 64  4  0  0  0  0
 57 65  4  0  0  0  0
 64 65  4  0  0  0  0
 65 66  1  0  0  0  0
 66 67  2  0  0  0  0
 66 68  1  0  0  0  0
 57 69  1  0  0  0  0
 58 70  1  0  0  0  0
 62 71  1  0  0  0  0
 63 72  1  0  0  0  0
 64 73  1  0  0  0  0
 68 74  1  0  0  0  0
  1 75  4  0  0  0  0
 75 76  2  0  0  0  0
 75 77  1  0  0  0  0
 77 78  1  0  0  0  0
 77 79  1  0  0  0  0
 77 80  1  0  0  0  0
 21 81  4  0  0  0  0
 81 82  2  0  0  0  0
 81 83  1  0  0  0  0
 83 84  1  0  0  0  0
 83 85  1  0  0  0  0
 83 86  1  0  0  0  0
 40 87  4  0  0  0  0
 87 88  2  0  0  0  0
 87 89  1  0  0  0  0
 89 90  1  0  0  0  0
 89 91  1  0  0  0  0
 89 92  1  0  0  0  0
  3 93  4  0  0  0  0
 93 94  1  0  0  0  0
 93 95  1  0  0  0  0
 95 96  1  0  0  0  0
 95 97  1  0  0  0  0
 95 98  1  0  0  0  0
 23 99  4  0  0  0  0
 99100  1  0  0  0  0
 99101  1  0  0  0  0
101102  1  0  0  0  0
101103  1  0  0  0  0
101104  1  0  0  0  0
 42105  4  0  0  0  0
105106  1  0  0  0  0
105107  1  0  0  0  0
107108  1  0  0  0  0
107109  1  0  0  0  0
107110  1  0  0  0  0
M  END
