 xtb: 6.6.1 (8d0f1dd)
          06102410563D

211207  0     0  0            999 V2000
   17.4100    6.9920   31.8710 N   0  0  0  0  0  0  0  0  0  0  0  0
   18.8200    6.9480   31.5650 C   0  0  0  0  0  0  0  0  0  0  0  0
   19.2080    7.7520   30.3350 C   0  0  0  0  0  0  0  0  0  0  0  0
   18.4370    8.5460   29.7930 O   0  0  0  0  0  0  0  0  0  0  0  0
   16.9310    6.5000   31.3530 H   0  0  0  0  0  0  0  0  0  0  0  0
   19.3890    7.3260   32.4150 H   0  0  0  0  0  0  0  0  0  0  0  0
   19.1260    5.9150   31.4080 H   0  0  0  0  0  0  0  0  0  0  0  0
   20.4570    7.5460   29.9220 N   0  0  0  0  0  0  0  0  0  0  0  0
   21.0690    8.2980   28.8320 C   0  0  0  0  0  0  0  0  0  0  0  0
   20.3350    8.0460   27.5200 C   0  0  0  0  0  0  0  0  0  0  0  0
   20.0160    6.9020   27.1840 O   0  0  0  0  0  0  0  0  0  0  0  0
   22.5430    7.9200   28.6800 C   0  0  0  0  0  0  0  0  0  0  0  0
   23.3300    8.8790   27.8320 C   0  0  0  0  0  0  0  0  0  0  0  0
   23.7720   10.0860   28.3530 C   0  0  0  0  0  0  0  0  0  0  0  0
   23.6290    8.5760   26.5130 C   0  0  0  0  0  0  0  0  0  0  0  0
   24.4960   10.9690   27.5740 C   0  0  0  0  0  0  0  0  0  0  0  0
   24.3540    9.4560   25.7320 C   0  0  0  0  0  0  0  0  0  0  0  0
   24.7870   10.6540   26.2640 C   0  0  0  0  0  0  0  0  0  0  0  0
   20.9850    6.9600   30.2660 H   0  0  0  0  0  0  0  0  0  0  0  0
   21.0030    9.3610   29.0660 H   0  0  0  0  0  0  0  0  0  0  0  0
   23.0100    7.8740   29.6640 H   0  0  0  0  0  0  0  0  0  0  0  0
   22.6210    6.9300   28.2350 H   0  0  0  0  0  0  0  0  0  0  0  0
   23.5430   10.3350   29.3900 H   0  0  0  0  0  0  0  0  0  0  0  0
   23.2870    7.6300   26.0930 H   0  0  0  0  0  0  0  0  0  0  0  0
   24.8370   11.9140   27.9960 H   0  0  0  0  0  0  0  0  0  0  0  0
   24.5830    9.2050   24.6960 H   0  0  0  0  0  0  0  0  0  0  0  0
   25.3570   11.3490   25.6490 H   0  0  0  0  0  0  0  0  0  0  0  0
   16.8650    4.4670   36.2430 N   0  0  0  0  0  0  0  0  0  0  0  0
   17.4290    3.4800   35.3320 C   0  0  0  0  0  0  0  0  0  0  0  0
   18.7460    3.9680   34.7400 C   0  0  0  0  0  0  0  0  0  0  0  0
   18.8630    5.1340   34.3480 O   0  0  0  0  0  0  0  0  0  0  0  0
   16.4430    3.1580   34.2050 C   0  0  0  0  0  0  0  0  0  0  0  0
   16.9810    2.1950   33.1920 C   0  0  0  0  0  0  0  0  0  0  0  0
   17.1880    2.5420   31.8730 N   0  0  0  0  0  0  0  0  0  0  0  0
   17.3530    0.8980   33.3030 C   0  0  0  0  0  0  0  0  0  0  0  0
   17.6660    1.4980   31.2170 C   0  0  0  0  0  0  0  0  0  0  0  0
   17.7740    0.4900   32.0620 N   0  0  0  0  0  0  0  0  0  0  0  0
   16.4480    5.1020   35.8410 H   0  0  0  0  0  0  0  0  0  0  0  0
   17.6330    2.5580   35.8760 H   0  0  0  0  0  0  0  0  0  0  0  0
   15.5320    2.7340   34.6280 H   0  0  0  0  0  0  0  0  0  0  0  0
   16.1680    4.0770   33.6890 H   0  0  0  0  0  0  0  0  0  0  0  0
   17.3230    0.2920   34.2090 H   0  0  0  0  0  0  0  0  0  0  0  0
   17.9260    1.4750   30.1590 H   0  0  0  0  0  0  0  0  0  0  0  0
   18.1120   -0.4350   31.8370 H   0  0  0  0  0  0  0  0  0  0  0  0
   22.1490    5.3570   33.5560 N   0  0  0  0  0  0  0  0  0  0  0  0
   22.7400    6.5670   34.1230 C   0  0  0  0  0  0  0  0  0  0  0  0
   21.8220    7.1890   35.1710 C   0  0  0  0  0  0  0  0  0  0  0  0
   22.2990    7.8680   36.0880 O   0  0  0  0  0  0  0  0  0  0  0  0
   23.0450    7.5740   33.0160 C   0  0  0  0  0  0  0  0  0  0  0  0
   24.4710    7.5150   32.4860 C   0  0  0  0  0  0  0  0  0  0  0  0
   24.8550    8.8780   31.3700 S   0  0  0  0  0  0  0  0  0  0  0  0
   26.6160    8.6430   31.1420 C   0  0  0  0  0  0  0  0  0  0  0  0
   22.1230    5.3210   32.6970 H   0  0  0  0  0  0  0  0  0  0  0  0
   23.6720    6.2970   34.6190 H   0  0  0  0  0  0  0  0  0  0  0  0
   22.3700    7.4080   32.1780 H   0  0  0  0  0  0  0  0  0  0  0  0
   22.8670    8.5850   33.3850 H   0  0  0  0  0  0  0  0  0  0  0  0
   25.1710    7.5440   33.3210 H   0  0  0  0  0  0  0  0  0  0  0  0
   24.6210    6.5780   31.9500 H   0  0  0  0  0  0  0  0  0  0  0  0
   27.0020    9.4120   30.4730 H   0  0  0  0  0  0  0  0  0  0  0  0
   27.1200    8.7120   32.1060 H   0  0  0  0  0  0  0  0  0  0  0  0
   26.7980    7.6590   30.7070 H   0  0  0  0  0  0  0  0  0  0  0  0
   24.5310    2.7940   36.0240 N   0  0  0  0  0  0  0  0  0  0  0  0
   25.7920    3.0850   35.3580 C   0  0  0  0  0  0  0  0  0  0  0  0
   26.3700    4.3420   35.9880 C   0  0  0  0  0  0  0  0  0  0  0  0
   25.6710    5.3530   36.1040 O   0  0  0  0  0  0  0  0  0  0  0  0
   25.5960    3.2810   33.8540 C   0  0  0  0  0  0  0  0  0  0  0  0
   26.8810    3.4470   33.1000 C   0  0  0  0  0  0  0  0  0  0  0  0
   27.5130    2.5010   32.3490 C   0  0  0  0  0  0  0  0  0  0  0  0
   27.7010    4.6380   33.0180 C   0  0  0  0  0  0  0  0  0  0  0  0
   28.6650    3.0170   31.8100 N   0  0  0  0  0  0  0  0  0  0  0  0
   28.7950    4.3240   32.2070 C   0  0  0  0  0  0  0  0  0  0  0  0
   27.5950    5.9250   33.5590 C   0  0  0  0  0  0  0  0  0  0  0  0
   29.7850    5.2510   31.9210 C   0  0  0  0  0  0  0  0  0  0  0  0
   28.5870    6.8540   33.2710 C   0  0  0  0  0  0  0  0  0  0  0  0
   29.6540    6.5250   32.4720 C   0  0  0  0  0  0  0  0  0  0  0  0
   23.9970    3.4680   36.0290 H   0  0  0  0  0  0  0  0  0  0  0  0
   26.4640    2.2400   35.5070 H   0  0  0  0  0  0  0  0  0  0  0  0
   25.0640    2.4240   33.4410 H   0  0  0  0  0  0  0  0  0  0  0  0
   24.9810    4.1640   33.6790 H   0  0  0  0  0  0  0  0  0  0  0  0
   27.1560    1.4830   32.2000 H   0  0  0  0  0  0  0  0  0  0  0  0
   29.3130    2.5180   31.2170 H   0  0  0  0  0  0  0  0  0  0  0  0
   26.7490    6.1920   34.1910 H   0  0  0  0  0  0  0  0  0  0  0  0
   30.6400    5.0090   31.2890 H   0  0  0  0  0  0  0  0  0  0  0  0
   28.4980    7.8540   33.6960 H   0  0  0  0  0  0  0  0  0  0  0  0
   30.4140    7.2790   32.2660 H   0  0  0  0  0  0  0  0  0  0  0  0
   26.0990   -3.1200   28.8320 N   0  0  0  0  0  0  0  0  0  0  0  0
   26.2740   -1.6770   28.8580 C   0  0  0  0  0  0  0  0  0  0  0  0
   26.7440   -1.2080   30.2260 C   0  0  0  0  0  0  0  0  0  0  0  0
   27.6270   -0.3520   30.3290 O   0  0  0  0  0  0  0  0  0  0  0  0
   24.9630   -0.9580   28.4890 C   0  0  0  0  0  0  0  0  0  0  0  0
   24.3310   -1.6020   27.2520 C   0  0  0  0  0  0  0  0  0  0  0  0
   25.2180    0.5220   28.2510 C   0  0  0  0  0  0  0  0  0  0  0  0
   25.2340   -1.6100   26.0390 C   0  0  0  0  0  0  0  0  0  0  0  0
   25.3270   -3.3780   29.1130 H   0  0  0  0  0  0  0  0  0  0  0  0
   27.0330   -1.4070   28.1250 H   0  0  0  0  0  0  0  0  0  0  0  0
   24.2470   -1.0680   29.3020 H   0  0  0  0  0  0  0  0  0  0  0  0
   24.0550   -2.6310   27.4790 H   0  0  0  0  0  0  0  0  0  0  0  0
   23.4170   -1.0690   26.9920 H   0  0  0  0  0  0  0  0  0  0  0  0
   24.2810    1.0150   27.9910 H   0  0  0  0  0  0  0  0  0  0  0  0
   25.6240    0.9720   29.1560 H   0  0  0  0  0  0  0  0  0  0  0  0
   25.9300    0.6430   27.4350 H   0  0  0  0  0  0  0  0  0  0  0  0
   24.7160   -2.0810   25.2040 H   0  0  0  0  0  0  0  0  0  0  0  0
   25.4940   -0.5850   25.7730 H   0  0  0  0  0  0  0  0  0  0  0  0
   26.1410   -2.1680   26.2650 H   0  0  0  0  0  0  0  0  0  0  0  0
   20.3240   -5.1640   29.4830 N   0  0  0  0  0  0  0  0  0  0  0  0
   20.4100   -3.8190   30.0390 C   0  0  0  0  0  0  0  0  0  0  0  0
   19.0690   -3.0970   30.0860 C   0  0  0  0  0  0  0  0  0  0  0  0
   18.8430   -2.2750   30.9810 O   0  0  0  0  0  0  0  0  0  0  0  0
   21.4060   -2.9800   29.2320 C   0  0  0  0  0  0  0  0  0  0  0  0
   21.5980   -1.5950   29.7680 C   0  0  0  0  0  0  0  0  0  0  0  0
   22.0950   -1.3490   31.0300 N   0  0  0  0  0  0  0  0  0  0  0  0
   21.3600   -0.3840   29.2130 C   0  0  0  0  0  0  0  0  0  0  0  0
   22.1550   -0.0430   31.2290 C   0  0  0  0  0  0  0  0  0  0  0  0
   21.7140    0.5640   30.1420 N   0  0  0  0  0  0  0  0  0  0  0  0
   20.7980   -5.2810   28.7740 H   0  0  0  0  0  0  0  0  0  0  0  0
   20.7630   -3.8740   31.0680 H   0  0  0  0  0  0  0  0  0  0  0  0
   22.3760   -3.4790   29.2190 H   0  0  0  0  0  0  0  0  0  0  0  0
   21.0640   -2.9020   28.2000 H   0  0  0  0  0  0  0  0  0  0  0  0
   22.4400   -2.0320   31.6740 H   0  0  0  0  0  0  0  0  0  0  0  0
   20.9690   -0.0770   28.2420 H   0  0  0  0  0  0  0  0  0  0  0  0
   22.5240    0.3590   32.1720 H   0  0  0  0  0  0  0  0  0  0  0  0
   24.7390    3.4970   28.2700 C   0  0  0  0  0  0  0  0  0  0  0  0
   23.3820    3.3330   28.4450 C   0  0  0  0  0  0  0  0  0  0  0  0
   22.6660    4.2350   29.2340 C   0  0  0  0  0  0  0  0  0  0  0  0
   21.2090    4.0590   29.4220 C   0  0  0  0  0  0  0  0  0  0  0  0
   20.5840    4.8500   30.0980 O   0  0  0  0  0  0  0  0  0  0  0  0
   20.5760    3.0200   28.8420 O   0  0  0  0  0  0  0  0  0  0  0  0
   23.3250    5.3020   29.8470 C   0  0  0  0  0  0  0  0  0  0  0  0
   24.6820    5.4650   29.6730 C   0  0  0  0  0  0  0  0  0  0  0  0
   25.3980    4.5630   28.8840 C   0  0  0  0  0  0  0  0  0  0  0  0
   26.8540    4.7420   28.6920 C   0  0  0  0  0  0  0  0  0  0  0  0
   27.4280    5.6680   29.2270 O   0  0  0  0  0  0  0  0  0  0  0  0
   27.5430    3.8760   27.9240 O   0  0  0  0  0  0  0  0  0  0  0  0
   25.2930    2.7980   27.6600 H   0  0  0  0  0  0  0  0  0  0  0  0
   22.8720    2.5060   27.9710 H   0  0  0  0  0  0  0  0  0  0  0  0
   21.1030    2.2310   28.6610 H   0  0  0  0  0  0  0  0  0  0  0  0
   22.7710    6.0000   30.4570 H   0  0  0  0  0  0  0  0  0  0  0  0
   25.1910    6.2930   30.1430 H   0  0  0  0  0  0  0  0  0  0  0  0
   27.1420    3.0110   27.7690 H   0  0  0  0  0  0  0  0  0  0  0  0
   16.9120    7.7280   32.8630 C   0  0  0  0  0  0  0  0  0  0  0  0
   17.5980    8.4760   33.5580 O   0  0  0  0  0  0  0  0  0  0  0  0
   15.5290    7.6140   33.0450 C   0  0  0  0  0  0  0  0  0  0  0  0
   15.0350    8.5040   32.6520 H   0  0  0  0  0  0  0  0  0  0  0  0
   15.1630    6.7330   32.5160 H   0  0  0  0  0  0  0  0  0  0  0  0
   15.3080    7.5160   34.1080 H   0  0  0  0  0  0  0  0  0  0  0  0
   16.9880    4.3840   37.5700 C   0  0  0  0  0  0  0  0  0  0  0  0
   17.5470    3.4550   38.1570 O   0  0  0  0  0  0  0  0  0  0  0  0
   16.4530    5.4730   38.2680 C   0  0  0  0  0  0  0  0  0  0  0  0
   15.8010    5.1100   39.0640 H   0  0  0  0  0  0  0  0  0  0  0  0
   17.2620    6.0610   38.7020 H   0  0  0  0  0  0  0  0  0  0  0  0
   15.8780    6.0970   37.5840 H   0  0  0  0  0  0  0  0  0  0  0  0
   21.6980    4.4140   34.3900 C   0  0  0  0  0  0  0  0  0  0  0  0
   21.8940    4.4930   35.6130 O   0  0  0  0  0  0  0  0  0  0  0  0
   20.9920    3.3130   33.8910 C   0  0  0  0  0  0  0  0  0  0  0  0
   21.1740    2.4450   34.5260 H   0  0  0  0  0  0  0  0  0  0  0  0
   19.9250    3.5380   33.8820 H   0  0  0  0  0  0  0  0  0  0  0  0
   21.3250    3.0960   32.8760 H   0  0  0  0  0  0  0  0  0  0  0  0
   24.2280    1.6140   36.5720 C   0  0  0  0  0  0  0  0  0  0  0  0
   24.9750    0.6370   36.5140 O   0  0  0  0  0  0  0  0  0  0  0  0
   22.9950    1.5610   37.2340 C   0  0  0  0  0  0  0  0  0  0  0  0
   22.1890    1.7000   36.5120 H   0  0  0  0  0  0  0  0  0  0  0  0
   22.8840    0.5920   37.7200 H   0  0  0  0  0  0  0  0  0  0  0  0
   22.9510    2.3510   37.9840 H   0  0  0  0  0  0  0  0  0  0  0  0
   27.0490   -3.9450   28.4140 C   0  0  0  0  0  0  0  0  0  0  0  0
   28.1810   -3.5600   28.0930 O   0  0  0  0  0  0  0  0  0  0  0  0
   26.7490   -5.3120   28.3920 C   0  0  0  0  0  0  0  0  0  0  0  0
   26.6870   -5.6880   29.4140 H   0  0  0  0  0  0  0  0  0  0  0  0
   25.7940   -5.4670   27.8900 H   0  0  0  0  0  0  0  0  0  0  0  0
   27.5320   -5.8480   27.8550 H   0  0  0  0  0  0  0  0  0  0  0  0
   19.5640   -6.1040   30.0510 C   0  0  0  0  0  0  0  0  0  0  0  0
   18.8000   -5.8670   30.9920 O   0  0  0  0  0  0  0  0  0  0  0  0
   19.6900   -7.3870   29.5050 C   0  0  0  0  0  0  0  0  0  0  0  0
   20.1240   -8.0580   30.2470 H   0  0  0  0  0  0  0  0  0  0  0  0
   18.7060   -7.7560   29.2120 H   0  0  0  0  0  0  0  0  0  0  0  0
   20.3370   -7.3470   28.6280 H   0  0  0  0  0  0  0  0  0  0  0  0
   20.0430    9.1230   26.7900 N   0  0  0  0  0  0  0  0  0  0  0  0
   20.2810    9.9220   26.9980 H   0  0  0  0  0  0  0  0  0  0  0  0
   19.3110    9.0490   25.5990 C   0  0  0  0  0  0  0  0  0  0  0  0
   18.2470    9.1270   25.8210 H   0  0  0  0  0  0  0  0  0  0  0  0
   19.5110    8.0970   25.1080 H   0  0  0  0  0  0  0  0  0  0  0  0
   19.6050    9.8640   24.9390 H   0  0  0  0  0  0  0  0  0  0  0  0
   19.7260    3.0670   34.6830 N   0  0  0  0  0  0  0  0  0  0  0  0
   19.7230    2.3340   35.1330 H   0  0  0  0  0  0  0  0  0  0  0  0
   20.8700    3.2080   33.8880 C   0  0  0  0  0  0  0  0  0  0  0  0
   20.5840    3.2120   32.8370 H   0  0  0  0  0  0  0  0  0  0  0  0
   21.5490    2.3760   34.0770 H   0  0  0  0  0  0  0  0  0  0  0  0
   21.3700    4.1450   34.1330 H   0  0  0  0  0  0  0  0  0  0  0  0
   20.5070    6.9970   35.0370 N   0  0  0  0  0  0  0  0  0  0  0  0
   20.1330    6.5980   34.3730 H   0  0  0  0  0  0  0  0  0  0  0  0
   19.6160    7.4580   36.0140 C   0  0  0  0  0  0  0  0  0  0  0  0
   20.1010    8.2270   36.6140 H   0  0  0  0  0  0  0  0  0  0  0  0
   19.3180    6.6290   36.6550 H   0  0  0  0  0  0  0  0  0  0  0  0
   18.7320    7.8760   35.5320 H   0  0  0  0  0  0  0  0  0  0  0  0
   27.6380    4.2850   36.3820 N   0  0  0  0  0  0  0  0  0  0  0  0
   28.1240    3.5760   36.3590 H   0  0  0  0  0  0  0  0  0  0  0  0
   28.2930    5.4180   36.8800 C   0  0  0  0  0  0  0  0  0  0  0  0
   28.8290    5.9130   36.0700 H   0  0  0  0  0  0  0  0  0  0  0  0
   29.0000    5.1190   37.6540 H   0  0  0  0  0  0  0  0  0  0  0  0
   27.5610    6.1040   37.3060 H   0  0  0  0  0  0  0  0  0  0  0  0
   26.1250   -1.7390   31.2780 N   0  0  0  0  0  0  0  0  0  0  0  0
   25.4700   -2.2920   31.2090 H   0  0  0  0  0  0  0  0  0  0  0  0
   26.4640   -1.4630   32.6080 C   0  0  0  0  0  0  0  0  0  0  0  0
   27.5280   -1.2360   32.6730 H   0  0  0  0  0  0  0  0  0  0  0  0
   26.2380   -2.3300   33.2290 H   0  0  0  0  0  0  0  0  0  0  0  0
   25.8880   -0.6080   32.9610 H   0  0  0  0  0  0  0  0  0  0  0  0
   18.1770   -3.3560   29.1340 N   0  0  0  0  0  0  0  0  0  0  0  0
   18.2720   -3.9600   28.5290 H   0  0  0  0  0  0  0  0  0  0  0  0
   16.9800   -2.6350   29.0530 C   0  0  0  0  0  0  0  0  0  0  0  0
   16.6090   -2.6580   28.0290 H   0  0  0  0  0  0  0  0  0  0  0  0
   17.1560   -1.6020   29.3530 H   0  0  0  0  0  0  0  0  0  0  0  0
   16.2400   -3.0810   29.7180 H   0  0  0  0  0  0  0  0  0  0  0  0
  1  2  1  0  0  0  0
  2  3  1  0  0  0  0
  3  4  2  0  0  0  0
  1  5  1  0  0  0  0
  2  6  1  0  0  0  0
  2  7  1  0  0  0  0
  3  8  4  0  0  0  0
  8  9  1  0  0  0  0
  9 10  1  0  0  0  0
 10 11  2  0  0  0  0
  9 12  1  0  0  0  0
 12 13  1  0  0  0  0
 13 14  4  0  0  0  0
 13 15  4  0  0  0  0
 14 16  4  0  0  0  0
 15 17  4  0  0  0  0
 16 18  4  0  0  0  0
 17 18  4  0  0  0  0
  8 19  1  0  0  0  0
  9 20  1  0  0  0  0
 12 21  1  0  0  0  0
 12 22  1  0  0  0  0
 14 23  1  0  0  0  0
 15 24  1  0  0  0  0
 16 25  1  0  0  0  0
 17 26  1  0  0  0  0
 18 27  1  0  0  0  0
 28 29  1  0  0  0  0
 29 30  1  0  0  0  0
 30 31  2  0  0  0  0
 29 32  1  0  0  0  0
 32 33  1  0  0  0  0
 33 34  4  0  0  0  0
 33 35  2  0  0  0  0
 34 36  2  0  0  0  0
 35 37  1  0  0  0  0
 36 37  4  0  0  0  0
 28 38  1  0  0  0  0
 29 39  1  0  0  0  0
 32 40  1  0  0  0  0
 32 41  1  0  0  0  0
 35 42  1  0  0  0  0
 36 43  1  0  0  0  0
 37 44  1  0  0  0  0
 45 46  1  0  0  0  0
 46 47  1  0  0  0  0
 47 48  2  0  0  0  0
 46 49  1  0  0  0  0
 49 50  1  0  0  0  0
 50 51  1  0  0  0  0
 51 52  1  0  0  0  0
 45 53  1  0  0  0  0
 46 54  1  0  0  0  0
 49 55  1  0  0  0  0
 49 56  1  0  0  0  0
 50 57  1  0  0  0  0
 50 58  1  0  0  0  0
 52 59  1  0  0  0  0
 52 60  1  0  0  0  0
 52 61  1  0  0  0  0
 62 63  1  0  0  0  0
 63 64  1  0  0  0  0
 64 65  2  0  0  0  0
 63 66  1  0  0  0  0
 66 67  1  0  0  0  0
 67 68  2  0  0  0  0
 67 69  1  0  0  0  0
 68 70  4  0  0  0  0
 69 71  4  0  0  0  0
 70 71  1  0  0  0  0
 69 72  4  0  0  0  0
 71 73  4  0  0  0  0
 72 74  4  0  0  0  0
 73 75  4  0  0  0  0
 74 75  4  0  0  0  0
 62 76  1  0  0  0  0
 63 77  1  0  0  0  0
 66 78  1  0  0  0  0
 66 79  1  0  0  0  0
 68 80  1  0  0  0  0
 70 81  1  0  0  0  0
 72 82  1  0  0  0  0
 73 83  1  0  0  0  0
 74 84  1  0  0  0  0
 75 85  1  0  0  0  0
 86 87  1  0  0  0  0
 87 88  1  0  0  0  0
 88 89  2  0  0  0  0
 87 90  1  0  0  0  0
 90 91  1  0  0  0  0
 90 92  1  0  0  0  0
 91 93  1  0  0  0  0
 86 94  1  0  0  0  0
 87 95  1  0  0  0  0
 90 96  1  0  0  0  0
 91 97  1  0  0  0  0
 91 98  1  0  0  0  0
 92 99  1  0  0  0  0
 92100  1  0  0  0  0
 92101  1  0  0  0  0
 93102  1  0  0  0  0
 93103  1  0  0  0  0
 93104  1  0  0  0  0
105106  1  0  0  0  0
106107  1  0  0  0  0
107108  2  0  0  0  0
106109  1  0  0  0  0
109110  1  0  0  0  0
110111  1  0  0  0  0
110112  2  0  0  0  0
111113  4  0  0  0  0
112114  4  0  0  0  0
113114  2  0  0  0  0
105115  1  0  0  0  0
106116  1  0  0  0  0
109117  1  0  0  0  0
109118  1  0  0  0  0
111119  1  0  0  0  0
112120  1  0  0  0  0
113121  1  0  0  0  0
122123  4  0  0  0  0
123124  4  0  0  0  0
124125  1  0  0  0  0
125126  2  0  0  0  0
125127  1  0  0  0  0
124128  4  0  0  0  0
128129  4  0  0  0  0
122130  4  0  0  0  0
129130  4  0  0  0  0
130131  1  0  0  0  0
131132  2  0  0  0  0
131133  1  0  0  0  0
122134  1  0  0  0  0
123135  1  0  0  0  0
127136  1  0  0  0  0
128137  1  0  0  0  0
129138  1  0  0  0  0
133139  1  0  0  0  0
  1140  4  0  0  0  0
140141  2  0  0  0  0
140142  1  0  0  0  0
142143  1  0  0  0  0
142144  1  0  0  0  0
142145  1  0  0  0  0
 28146  4  0  0  0  0
146147  2  0  0  0  0
146148  1  0  0  0  0
148149  1  0  0  0  0
148150  1  0  0  0  0
148151  1  0  0  0  0
 45152  1  0  0  0  0
152153  2  0  0  0  0
 62158  4  0  0  0  0
158159  2  0  0  0  0
158160  1  0  0  0  0
160161  1  0  0  0  0
160162  1  0  0  0  0
160163  1  0  0  0  0
 86164  4  0  0  0  0
164165  2  0  0  0  0
164166  1  0  0  0  0
166167  1  0  0  0  0
166168  1  0  0  0  0
166169  1  0  0  0  0
105170  4  0  0  0  0
170171  2  0  0  0  0
170172  1  0  0  0  0
172173  1  0  0  0  0
172174  1  0  0  0  0
172175  1  0  0  0  0
 10176  4  0  0  0  0
176177  1  0  0  0  0
176178  1  0  0  0  0
178179  1  0  0  0  0
178180  1  0  0  0  0
178181  1  0  0  0  0
 30182  1  0  0  0  0
156182  1  0  0  0  0
182183  1  0  0  0  0
154184  3  0  0  0  0
157185  1  0  0  0  0
155186  1  0  0  0  0
152187  1  0  0  0  0
 47188  4  0  0  0  0
188189  1  0  0  0  0
188190  1  0  0  0  0
190191  1  0  0  0  0
190192  1  0  0  0  0
190193  1  0  0  0  0
 64194  4  0  0  0  0
194195  1  0  0  0  0
194196  1  0  0  0  0
196197  1  0  0  0  0
196198  1  0  0  0  0
196199  1  0  0  0  0
 88200  4  0  0  0  0
200201  1  0  0  0  0
200202  1  0  0  0  0
202203  1  0  0  0  0
202204  1  0  0  0  0
202205  1  0  0  0  0
107206  4  0  0  0  0
206207  1  0  0  0  0
206208  1  0  0  0  0
208209  1  0  0  0  0
208210  1  0  0  0  0
208211  1  0  0  0  0
M  END
