temp_xtb_pdb
  PyMOL2.4          3D                             0

134131  0  0  0  0  0  0  0  0999 V2000
    4.0310  -12.2930   34.0030 N   0  0  0  0  0  0  0  0  0  0  0  0
    4.1170  -13.0900   35.2230 C   0  0  0  0  0  0  0  0  0  0  0  0
    2.8050  -13.7650   35.6190 C   0  0  0  0  0  0  0  0  0  0  0  0
    1.8000  -13.0920   35.5520 O   0  0  0  0  0  0  0  0  0  0  0  0
    4.5920  -12.2090   36.3800 C   0  0  0  0  0  0  0  0  0  0  0  0
    4.3850  -12.8240   37.7350 C   0  0  0  0  0  0  0  0  0  0  0  0
    5.4140  -13.5070   38.3660 C   0  0  0  0  0  0  0  0  0  0  0  0
    3.1630  -12.7210   38.3800 C   0  0  0  0  0  0  0  0  0  0  0  0
    5.2250  -14.0730   39.6130 C   0  0  0  0  0  0  0  0  0  0  0  0
    2.9710  -13.2850   39.6270 C   0  0  0  0  0  0  0  0  0  0  0  0
    4.0040  -13.9620   40.2430 C   0  0  0  0  0  0  0  0  0  0  0  0
    3.6440  -11.2910   34.0320 H   0  0  0  0  0  0  0  0  0  0  0  0
    4.7840  -13.8370   35.0400 H   0  0  0  0  0  0  0  0  0  0  0  0
    5.6530  -11.9950   36.2620 H   0  0  0  0  0  0  0  0  0  0  0  0
    4.0620  -11.2570   36.3540 H   0  0  0  0  0  0  0  0  0  0  0  0
    6.3800  -13.5930   37.8680 H   0  0  0  0  0  0  0  0  0  0  0  0
    2.3460  -12.1860   37.8930 H   0  0  0  0  0  0  0  0  0  0  0  0
    6.0420  -14.6070   40.0970 H   0  0  0  0  0  0  0  0  0  0  0  0
    2.0050  -13.1970   40.1240 H   0  0  0  0  0  0  0  0  0  0  0  0
    3.8540  -14.4090   41.2250 H   0  0  0  0  0  0  0  0  0  0  0  0
    0.3570   -8.5040   30.9930 N   0  0  0  0  0  0  0  0  0  0  0  0
    1.0070   -8.5670   32.3120 C   0  0  0  0  0  0  0  0  0  0  0  0
    2.3590   -7.7880   32.1800 C   0  0  0  0  0  0  0  0  0  0  0  0
    2.3320   -6.5830   31.9900 O   0  0  0  0  0  0  0  0  0  0  0  0
    1.2140  -10.0000   32.7650 C   0  0  0  0  0  0  0  0  0  0  0  0
   -0.0630  -10.6540   33.2160 C   0  0  0  0  0  0  0  0  0  0  0  0
   -0.5620  -11.5820   32.5700 O   0  0  0  0  0  0  0  0  0  0  0  0
   -0.6020  -10.1870   34.3140 N   0  0  0  0  0  0  0  0  0  0  0  0
   -0.6060   -8.8120   30.9520 H   0  0  0  0  0  0  0  0  0  0  0  0
    0.4150   -8.0020   33.0010 H   0  0  0  0  0  0  0  0  0  0  0  0
    1.6370  -10.5840   31.9460 H   0  0  0  0  0  0  0  0  0  0  0  0
    1.9300  -10.0230   33.5860 H   0  0  0  0  0  0  0  0  0  0  0  0
   -1.4520  -10.5830   34.6620 H   0  0  0  0  0  0  0  0  0  0  0  0
   -0.1630   -9.4340   34.8040 H   0  0  0  0  0  0  0  0  0  0  0  0
    3.5400   -3.8580   30.2880 N   0  0  0  0  0  0  0  0  0  0  0  0
    4.2530   -2.7570   30.9070 C   0  0  0  0  0  0  0  0  0  0  0  0
    5.5750   -2.4410   30.1840 C   0  0  0  0  0  0  0  0  0  0  0  0
    6.1220   -1.3800   30.3970 O   0  0  0  0  0  0  0  0  0  0  0  0
    4.5360   -3.0610   32.3800 C   0  0  0  0  0  0  0  0  0  0  0  0
    3.2550   -3.4950   33.0890 C   0  0  0  0  0  0  0  0  0  0  0  0
    3.4520   -3.7670   34.5860 C   0  0  0  0  0  0  0  0  0  0  0  0
    2.2850   -4.4300   35.1310 N   0  0  0  0  0  0  0  0  0  0  0  0
    1.0620   -3.9360   35.1060 C   0  0  0  0  0  0  0  0  0  0  0  0
    0.8400   -2.6390   34.8080 N   0  3  0  0  0  0  0  0  0  0  0  0
    0.0320   -4.7230   35.3800 N   0  0  0  0  0  0  0  0  0  0  0  0
    3.3660   -4.7080   30.8250 H   0  0  0  0  0  0  0  0  0  0  0  0
    3.6640   -1.8590   30.8140 H   0  0  0  0  0  0  0  0  0  0  0  0
    5.2860   -3.8500   32.4490 H   0  0  0  0  0  0  0  0  0  0  0  0
    4.9470   -2.1620   32.8420 H   0  0  0  0  0  0  0  0  0  0  0  0
    2.4890   -2.7330   32.9390 H   0  0  0  0  0  0  0  0  0  0  0  0
    2.8930   -4.4260   32.6520 H   0  0  0  0  0  0  0  0  0  0  0  0
    4.2890   -4.4520   34.7320 H   0  0  0  0  0  0  0  0  0  0  0  0
    3.6740   -2.8480   35.1360 H   0  0  0  0  0  0  0  0  0  0  0  0
    2.3920   -5.4400   35.3440 H   0  0  0  0  0  0  0  0  0  0  0  0
    1.6090   -1.9920   34.7900 H   0  0  0  0  0  0  0  0  0  0  0  0
   -0.0810   -2.2520   34.9250 H   0  0  0  0  0  0  0  0  0  0  0  0
    0.1570   -5.7470   35.4690 H   0  0  0  0  0  0  0  0  0  0  0  0
   -0.9030   -4.3550   35.3860 H   0  0  0  0  0  0  0  0  0  0  0  0
    8.8210   -7.1520   40.1250 N   0  0  0  0  0  0  0  0  0  0  0  0
    7.8910   -6.4310   41.0330 C   0  0  0  0  0  0  0  0  0  0  0  0
    8.5370   -5.3840   41.9330 C   0  0  0  0  0  0  0  0  0  0  0  0
    7.9540   -4.9860   42.9200 O   0  0  0  0  0  0  0  0  0  0  0  0
    7.1410   -7.4380   41.9080 C   0  0  0  0  0  0  0  0  0  0  0  0
    5.9890   -8.1190   41.2040 C   0  0  0  0  0  0  0  0  0  0  0  0
    6.2020   -9.2990   40.5060 C   0  0  0  0  0  0  0  0  0  0  0  0
    4.7190   -7.5630   41.2550 C   0  0  0  0  0  0  0  0  0  0  0  0
    5.1490   -9.9210   39.8630 C   0  0  0  0  0  0  0  0  0  0  0  0
    3.6660   -8.1850   40.6120 C   0  0  0  0  0  0  0  0  0  0  0  0
    3.8780   -9.3590   39.9190 C   0  0  0  0  0  0  0  0  0  0  0  0
    2.8300   -9.9790   39.2780 O   0  0  0  0  0  0  0  0  0  0  0  0
    9.5150   -7.7310   40.5820 H   0  0  0  0  0  0  0  0  0  0  0  0
    7.2060   -5.9190   40.3740 H   0  0  0  0  0  0  0  0  0  0  0  0
    7.8330   -8.2080   42.2520 H   0  0  0  0  0  0  0  0  0  0  0  0
    6.7500   -6.9320   42.7900 H   0  0  0  0  0  0  0  0  0  0  0  0
    7.2000   -9.7360   40.4660 H   0  0  0  0  0  0  0  0  0  0  0  0
    4.5520   -6.6360   41.8030 H   0  0  0  0  0  0  0  0  0  0  0  0
    5.3160  -10.8480   39.3160 H   0  0  0  0  0  0  0  0  0  0  0  0
    2.6680   -7.7480   40.6520 H   0  0  0  0  0  0  0  0  0  0  0  0
    2.0010   -9.6890   39.6690 H   0  0  0  0  0  0  0  0  0  0  0  0
    1.9240   -9.3800   36.4970 C   0  0  0  0  0  0  0  0  0  0  0  0
    1.6900   -7.9290   35.9820 C   0  0  0  0  0  0  0  0  0  0  0  0
    0.5620   -7.6990   35.4930 O   0  0  0  0  0  0  0  0  0  0  0  0
    2.6140   -7.1260   36.1130 O   0  5  0  0  0  0  0  0  0  0  0  0
    0.9670   -9.6410   37.4630 F   0  0  0  0  0  0  0  0  0  0  0  0
    1.7860  -10.1390   35.7270 H   0  0  0  0  0  0  0  0  0  0  0  0
    2.9030   -9.4590   36.9790 H   0  0  0  0  0  0  0  0  0  0  0  0
    4.3870  -12.6700   32.8090 C   0  0  0  0  0  0  0  0  0  0  0  0
    4.7880  -13.7920   32.5610 O   0  0  0  0  0  0  0  0  0  0  0  0
    4.3700  -11.6680   31.8310 C   0  0  0  0  0  0  0  0  0  0  0  0
    5.0830  -10.8880   32.0970 H   0  0  0  0  0  0  0  0  0  0  0  0
    4.6430  -12.0970   30.8660 H   0  0  0  0  0  0  0  0  0  0  0  0
    3.3700  -11.2390   31.7670 H   0  0  0  0  0  0  0  0  0  0  0  0
    1.0510   -8.8050   29.8870 C   0  0  0  0  0  0  0  0  0  0  0  0
    2.2270   -9.0190   29.8850 O   0  0  0  0  0  0  0  0  0  0  0  0
    0.3650   -8.7300   28.6690 C   0  0  0  0  0  0  0  0  0  0  0  0
    1.0820   -8.6160   27.8540 H   0  0  0  0  0  0  0  0  0  0  0  0
   -0.2120   -9.6420   28.5190 H   0  0  0  0  0  0  0  0  0  0  0  0
   -0.3080   -7.8720   28.6820 H   0  0  0  0  0  0  0  0  0  0  0  0
    3.0200   -3.8000   29.0740 C   0  0  0  0  0  0  0  0  0  0  0  0
    2.8930   -2.7580   28.4680 O   0  0  0  0  0  0  0  0  0  0  0  0
    2.4610   -5.0070   28.6370 C   0  0  0  0  0  0  0  0  0  0  0  0
    2.6370   -5.7810   29.3840 H   0  0  0  0  0  0  0  0  0  0  0  0
    1.3880   -4.8790   28.4910 H   0  0  0  0  0  0  0  0  0  0  0  0
    2.9220   -5.3010   27.6930 H   0  0  0  0  0  0  0  0  0  0  0  0
    9.4270   -6.4980   39.1570 C   0  0  0  0  0  0  0  0  0  0  0  0
    9.1480   -5.3390   38.8450 O   0  0  0  0  0  0  0  0  0  0  0  0
   10.3860   -7.2070   38.4240 C   0  0  0  0  0  0  0  0  0  0  0  0
   11.1740   -7.5530   39.0940 H   0  0  0  0  0  0  0  0  0  0  0  0
    9.9160   -8.0650   37.9430 H   0  0  0  0  0  0  0  0  0  0  0  0
   10.8170   -6.5550   37.6630 H   0  0  0  0  0  0  0  0  0  0  0  0
    2.8220  -15.0700   35.9940 N   0  0  0  0  0  0  0  0  0  0  0  0
    1.6160  -15.7730   36.4860 H   0  0  0  0  0  0  0  0  0  0  0  0
    3.9090  -15.9430   36.1280 C   0  0  0  0  0  0  0  0  0  0  0  0
    4.2890  -16.2040   35.1410 H   0  0  0  0  0  0  0  0  0  0  0  0
    3.5880  -16.8470   36.6450 H   0  0  0  0  0  0  0  0  0  0  0  0
    4.6960  -15.4580   36.7050 H   0  0  0  0  0  0  0  0  0  0  0  0
    3.4580   -8.3170   32.6840 N   0  0  0  0  0  0  0  0  0  0  0  0
    3.3770   -9.2690   33.0550 H   0  0  0  0  0  0  0  0  0  0  0  0
    4.6540   -7.5890   32.6980 C   0  0  0  0  0  0  0  0  0  0  0  0
    4.9750   -7.3970   31.6750 H   0  0  0  0  0  0  0  0  0  0  0  0
    5.4220   -8.1610   33.2190 H   0  0  0  0  0  0  0  0  0  0  0  0
    4.4980   -6.6420   33.2140 H   0  0  0  0  0  0  0  0  0  0  0  0
    6.2880   -3.4910   29.8260 N   0  0  0  0  0  0  0  0  0  0  0  0
    6.0210   -4.3880   30.2320 H   0  0  0  0  0  0  0  0  0  0  0  0
    7.3480   -3.3190   28.9280 C   0  0  0  0  0  0  0  0  0  0  0  0
    6.9650   -3.3210   27.9080 H   0  0  0  0  0  0  0  0  0  0  0  0
    8.0630   -4.1330   29.0490 H   0  0  0  0  0  0  0  0  0  0  0  0
    7.8450   -2.3700   29.1290 H   0  0  0  0  0  0  0  0  0  0  0  0
    9.7810   -5.5580   42.2910 N   0  0  0  0  0  0  0  0  0  0  0  0
   10.2040   -6.4720   42.0510 H   0  0  0  0  0  0  0  0  0  0  0  0
   10.4940   -4.5560   42.9600 C   0  0  0  0  0  0  0  0  0  0  0  0
   11.1700   -4.0620   42.2620 H   0  0  0  0  0  0  0  0  0  0  0  0
   11.0700   -4.9990   43.7720 H   0  0  0  0  0  0  0  0  0  0  0  0
    9.7970   -3.8250   43.3690 H   0  0  0  0  0  0  0  0  0  0  0  0
  1  2  1  0  0  0  0
  1 12  1  0  0  0  0
  1 87  1  0  0  0  0
  2  3  1  0  0  0  0
  2  5  1  0  0  0  0
  2 13  1  0  0  0  0
  3  4  2  0  0  0  0
  3111  1  0  0  0  0
  5  6  1  0  0  0  0
  5 14  1  0  0  0  0
  5 15  1  0  0  0  0
  6  7  2  0  0  0  0
  6  8  1  0  0  0  0
  7  9  1  0  0  0  0
  7 16  1  0  0  0  0
  8 10  2  0  0  0  0
  8 17  1  0  0  0  0
  9 11  2  0  0  0  0
  9 18  1  0  0  0  0
 10 11  1  0  0  0  0
 10 19  1  0  0  0  0
 11 20  1  0  0  0  0
 21 22  1  0  0  0  0
 21 29  1  0  0  0  0
 21 93  1  0  0  0  0
 22 23  1  0  0  0  0
 22 25  1  0  0  0  0
 22 30  1  0  0  0  0
 23 24  2  0  0  0  0
 23117  1  0  0  0  0
 25 26  1  0  0  0  0
 25 31  1  0  0  0  0
 25 32  1  0  0  0  0
 26 27  2  0  0  0  0
 26 28  1  0  0  0  0
 28 33  1  0  0  0  0
 28 34  1  0  0  0  0
 35 36  1  0  0  0  0
 35 46  1  0  0  0  0
 35 99  1  0  0  0  0
 36 37  1  0  0  0  0
 36 39  1  0  0  0  0
 36 47  1  0  0  0  0
 37 38  2  0  0  0  0
 37123  1  0  0  0  0
 39 40  1  0  0  0  0
 39 48  1  0  0  0  0
 39 49  1  0  0  0  0
 40 41  1  0  0  0  0
 40 50  1  0  0  0  0
 40 51  1  0  0  0  0
 41 42  1  0  0  0  0
 41 52  1  0  0  0  0
 41 53  1  0  0  0  0
 42 43  1  0  0  0  0
 42 54  1  0  0  0  0
 43 44  2  0  0  0  0
 43 45  1  0  0  0  0
 44 55  1  0  0  0  0
 44 56  1  0  0  0  0
 45 57  1  0  0  0  0
 45 58  1  0  0  0  0
 59 60  1  0  0  0  0
 59 71  1  0  0  0  0
 59105  1  0  0  0  0
 60 61  1  0  0  0  0
 60 63  1  0  0  0  0
 60 72  1  0  0  0  0
 61 62  2  0  0  0  0
 61129  1  0  0  0  0
 63 64  1  0  0  0  0
 63 73  1  0  0  0  0
 63 74  1  0  0  0  0
 64 65  2  0  0  0  0
 64 66  1  0  0  0  0
 65 67  1  0  0  0  0
 65 75  1  0  0  0  0
 66 68  2  0  0  0  0
 66 76  1  0  0  0  0
 67 69  2  0  0  0  0
 67 77  1  0  0  0  0
 68 69  1  0  0  0  0
 68 78  1  0  0  0  0
 69 70  1  0  0  0  0
 70 79  1  0  0  0  0
 80 81  1  0  0  0  0
 80 84  1  0  0  0  0
 80 85  1  0  0  0  0
 80 86  1  0  0  0  0
 81 82  2  0  0  0  0
 81 83  1  0  0  0  0
 87 88  1  0  0  0  0
 87 89  1  0  0  0  0
 89 90  1  0  0  0  0
 89 91  1  0  0  0  0
 89 92  1  0  0  0  0
 93 94  1  0  0  0  0
 93 95  1  0  0  0  0
 95 96  1  0  0  0  0
 95 97  1  0  0  0  0
 95 98  1  0  0  0  0
 99100  1  0  0  0  0
 99101  1  0  0  0  0
101102  1  0  0  0  0
101103  1  0  0  0  0
101104  1  0  0  0  0
105106  1  0  0  0  0
105107  1  0  0  0  0
107108  1  0  0  0  0
107109  1  0  0  0  0
107110  1  0  0  0  0
111112  1  0  0  0  0
111113  1  0  0  0  0
113114  1  0  0  0  0
113115  1  0  0  0  0
113116  1  0  0  0  0
117118  1  0  0  0  0
117119  1  0  0  0  0
119120  1  0  0  0  0
119121  1  0  0  0  0
119122  1  0  0  0  0
123124  1  0  0  0  0
123125  1  0  0  0  0
125126  1  0  0  0  0
125127  1  0  0  0  0
125128  1  0  0  0  0
129130  1  0  0  0  0
129131  1  0  0  0  0
131132  1  0  0  0  0
131133  1  0  0  0  0
131134  1  0  0  0  0
M  END
