temp_xtb_pdb
  PyMOL2.4          3D                             0

370386  0  0  0  0  0  0  0  0999 V2000
   41.6320  105.8330  117.8650 N   0  0  0  0  0  0  0  0  0  0  0  0
   42.8440  105.2700  117.2750 C   0  0  0  0  0  0  0  0  0  0  0  0
   43.9420  106.3030  117.0980 C   0  0  0  0  0  0  0  0  0  0  0  0
   44.2090  106.8330  116.0360 O   0  0  0  0  0  0  0  0  0  0  0  0
   42.5230  104.6260  115.9240 C   0  0  0  0  0  0  0  0  0  0  0  0
   41.7660  103.3210  116.0320 C   0  0  0  0  0  0  0  0  0  0  0  0
   40.4090  103.3060  116.3160 C   0  0  0  0  0  0  0  0  0  0  0  0
   42.4120  102.1070  115.8470 C   0  0  0  0  0  0  0  0  0  0  0  0
   39.7120  102.1170  116.4160 C   0  0  0  0  0  0  0  0  0  0  0  0
   41.7260  100.9120  115.9440 C   0  0  0  0  0  0  0  0  0  0  0  0
   40.3750  100.9210  116.2290 C   0  0  0  0  0  0  0  0  0  0  0  0
   39.6870   99.7330  116.3250 O   0  0  0  0  0  0  0  0  0  0  0  0
   40.7950  105.6810  117.3180 H   0  0  0  0  0  0  0  0  0  0  0  0
   43.2180  104.4840  117.9440 H   0  0  0  0  0  0  0  0  0  0  0  0
   41.9300  105.3440  115.3570 H   0  0  0  0  0  0  0  0  0  0  0  0
   43.4720  104.4550  115.4160 H   0  0  0  0  0  0  0  0  0  0  0  0
   39.8910  104.2540  116.4630 H   0  0  0  0  0  0  0  0  0  0  0  0
   43.4780  102.1070  115.6230 H   0  0  0  0  0  0  0  0  0  0  0  0
   38.6460  102.1200  116.6400 H   0  0  0  0  0  0  0  0  0  0  0  0
   42.2510   99.9680  115.7960 H   0  0  0  0  0  0  0  0  0  0  0  0
   47.0390   96.2510  114.1340 N   0  0  0  0  0  0  0  0  0  0  0  0
   45.7390   95.7540  113.7010 C   0  0  0  0  0  0  0  0  0  0  0  0
   45.8960   94.4670  112.9090 C   0  0  0  0  0  0  0  0  0  0  0  0
   45.1950   93.4950  113.1070 O   0  0  0  0  0  0  0  0  0  0  0  0
   44.9960   96.8110  112.8550 C   0  0  0  0  0  0  0  0  0  0  0  0
   43.5170   96.6100  112.9180 C   0  0  0  0  0  0  0  0  0  0  0  0
   42.6590   96.2200  111.9240 C   0  0  0  0  0  0  0  0  0  0  0  0
   42.7160   96.8130  114.0830 C   0  0  0  0  0  0  0  0  0  0  0  0
   41.3840   96.1690  112.3880 N   0  0  0  0  0  0  0  0  0  0  0  0
   41.3820   96.5240  113.7070 C   0  0  0  0  0  0  0  0  0  0  0  0
   42.9850   97.2140  115.3930 C   0  0  0  0  0  0  0  0  0  0  0  0
   40.3300   96.6130  114.6120 C   0  0  0  0  0  0  0  0  0  0  0  0
   41.9390   97.3080  116.2800 C   0  0  0  0  0  0  0  0  0  0  0  0
   40.6280   97.0060  115.8970 C   0  0  0  0  0  0  0  0  0  0  0  0
   47.0270   97.2030  114.4700 H   0  0  0  0  0  0  0  0  0  0  0  0
   45.1240   95.5220  114.5790 H   0  0  0  0  0  0  0  0  0  0  0  0
   45.2330   97.7960  113.2680 H   0  0  0  0  0  0  0  0  0  0  0  0
   45.3430   96.7810  111.8200 H   0  0  0  0  0  0  0  0  0  0  0  0
   42.8820   95.9760  110.8980 H   0  0  0  0  0  0  0  0  0  0  0  0
   40.5570   95.9530  111.8340 H   0  0  0  0  0  0  0  0  0  0  0  0
   43.9970   97.4530  115.7060 H   0  0  0  0  0  0  0  0  0  0  0  0
   39.3280   96.3440  114.3090 H   0  0  0  0  0  0  0  0  0  0  0  0
   42.1260   97.6170  117.3010 H   0  0  0  0  0  0  0  0  0  0  0  0
   39.8410   97.0860  116.6340 H   0  0  0  0  0  0  0  0  0  0  0  0
   34.0720  102.0580  106.8420 N   0  0  0  0  0  0  0  0  0  0  0  0
   34.9040  101.6060  107.9490 C   0  0  0  0  0  0  0  0  0  0  0  0
   36.1840  100.9940  107.4050 C   0  0  0  0  0  0  0  0  0  0  0  0
   36.7180  100.0360  107.9320 O   0  0  0  0  0  0  0  0  0  0  0  0
   34.1520  100.6290  108.8450 C   0  0  0  0  0  0  0  0  0  0  0  0
   34.0230  101.4570  106.0350 H   0  0  0  0  0  0  0  0  0  0  0  0
   35.1540  102.5020  108.5300 H   0  0  0  0  0  0  0  0  0  0  0  0
   34.7720  100.3820  109.7010 H   0  0  0  0  0  0  0  0  0  0  0  0
   33.2400  101.0910  109.2130 H   0  0  0  0  0  0  0  0  0  0  0  0
   33.9090   99.7140  108.3080 H   0  0  0  0  0  0  0  0  0  0  0  0
   39.3520  101.1550  107.6790 N   0  0  0  0  0  0  0  0  0  0  0  0
   40.3700  100.6150  108.5560 C   0  0  0  0  0  0  0  0  0  0  0  0
   41.6750  100.5020  107.7940 C   0  0  0  0  0  0  0  0  0  0  0  0
   42.2760  101.4670  107.3660 O   0  0  0  0  0  0  0  0  0  0  0  0
   38.9840  102.0560  107.9820 H   0  0  0  0  0  0  0  0  0  0  0  0
   40.4980  101.2960  109.3980 H   0  0  0  0  0  0  0  0  0  0  0  0
   40.0650   99.6400  108.9460 H   0  0  0  0  0  0  0  0  0  0  0  0
   37.4920  106.6300  105.9680 N   0  0  0  0  0  0  0  0  0  0  0  0
   37.6720  106.3020  107.3720 C   0  0  0  0  0  0  0  0  0  0  0  0
   38.0240  107.6020  108.0770 C   0  0  0  0  0  0  0  0  0  0  0  0
   38.5990  108.4830  107.4500 O   0  0  0  0  0  0  0  0  0  0  0  0
   38.7710  105.2550  107.5750 C   0  0  0  0  0  0  0  0  0  0  0  0
   38.6930  104.5700  108.9330 C   0  0  0  0  0  0  0  0  0  0  0  0
   38.9050  105.2290  109.9230 O   0  0  0  0  0  0  0  0  0  0  0  0
   38.4210  103.3930  108.9670 O   0  5  0  0  0  0  0  0  0  0  0  0
   37.9270  107.5060  105.7080 H   0  0  0  0  0  0  0  0  0  0  0  0
   36.7450  105.8620  107.7550 H   0  0  0  0  0  0  0  0  0  0  0  0
   38.6990  104.4960  106.7960 H   0  0  0  0  0  0  0  0  0  0  0  0
   39.7480  105.7300  107.4800 H   0  0  0  0  0  0  0  0  0  0  0  0
   34.4960  111.5060  107.8580 N   0  0  0  0  0  0  0  0  0  0  0  0
   33.8080  111.1090  109.0760 C   0  0  0  0  0  0  0  0  0  0  0  0
   32.3190  110.9890  108.8390 C   0  0  0  0  0  0  0  0  0  0  0  0
   31.7450  111.8380  108.1720 O   0  0  0  0  0  0  0  0  0  0  0  0
   34.0920  112.0900  110.1990 C   0  0  0  0  0  0  0  0  0  0  0  0
   33.6830  111.5610  111.5460 C   0  0  0  0  0  0  0  0  0  0  0  0
   32.5250  111.1790  111.7500 O   0  0  0  0  0  0  0  0  0  0  0  0
   34.6110  111.5310  112.4680 N   0  0  0  0  0  0  0  0  0  0  0  0
   34.0350  112.2350  107.3330 H   0  0  0  0  0  0  0  0  0  0  0  0
   34.2390  110.1540  109.3910 H   0  0  0  0  0  0  0  0  0  0  0  0
   35.1590  112.3200  110.2210 H   0  0  0  0  0  0  0  0  0  0  0  0
   33.5610  113.0230  110.0110 H   0  0  0  0  0  0  0  0  0  0  0  0
   34.3950  111.1890  113.3830 H   0  0  0  0  0  0  0  0  0  0  0  0
   35.5340  111.8500  112.2580 H   0  0  0  0  0  0  0  0  0  0  0  0
   31.7170  109.9330  109.3820 N   0  0  0  0  0  0  0  0  0  0  0  0
   30.2870  109.6930  109.2240 C   0  0  0  0  0  0  0  0  0  0  0  0
   29.4900  110.9540  109.5170 C   0  0  0  0  0  0  0  0  0  0  0  0
   28.5120  111.2490  108.8510 O   0  0  0  0  0  0  0  0  0  0  0  0
   29.8260  108.5660  110.1490 C   0  0  0  0  0  0  0  0  0  0  0  0
   30.5780  107.2840  109.9520 C   0  0  0  0  0  0  0  0  0  0  0  0
   31.1780  106.8600  108.8040 C   0  0  0  0  0  0  0  0  0  0  0  0
   30.8150  106.2480  110.9350 C   0  0  0  0  0  0  0  0  0  0  0  0
   31.7680  105.6360  109.0040 N   0  0  0  0  0  0  0  0  0  0  0  0
   31.5570  105.2480  110.3030 C   0  0  0  0  0  0  0  0  0  0  0  0
   30.4630  106.0920  112.2820 C   0  0  0  0  0  0  0  0  0  0  0  0
   31.9570  104.0990  110.9670 C   0  0  0  0  0  0  0  0  0  0  0  0
   30.8640  104.9410  112.9490 C   0  0  0  0  0  0  0  0  0  0  0  0
   31.5930  103.9710  112.3080 C   0  0  0  0  0  0  0  0  0  0  0  0
   32.2530  109.2520  109.9170 H   0  0  0  0  0  0  0  0  0  0  0  0
   30.0740  109.3880  108.1950 H   0  0  0  0  0  0  0  0  0  0  0  0
   29.9450  108.8760  111.1880 H   0  0  0  0  0  0  0  0  0  0  0  0
   28.7670  108.3710  109.9850 H   0  0  0  0  0  0  0  0  0  0  0  0
   31.1870  107.4110  107.8660 H   0  0  0  0  0  0  0  0  0  0  0  0
   32.2740  105.1070  108.3080 H   0  0  0  0  0  0  0  0  0  0  0  0
   29.8870  106.8610  112.7960 H   0  0  0  0  0  0  0  0  0  0  0  0
   32.5360  103.3170  110.4760 H   0  0  0  0  0  0  0  0  0  0  0  0
   30.5850  104.8270  113.9970 H   0  0  0  0  0  0  0  0  0  0  0  0
   31.8920  103.0800  112.8610 H   0  0  0  0  0  0  0  0  0  0  0  0
   32.0860   95.9610  113.9090 N   0  0  0  0  0  0  0  0  0  0  0  0
   31.7060   96.6420  115.1390 C   0  0  0  0  0  0  0  0  0  0  0  0
   32.1770   98.0900  115.0760 C   0  0  0  0  0  0  0  0  0  0  0  0
   32.2340   98.7900  116.0680 O   0  0  0  0  0  0  0  0  0  0  0  0
   32.2730   95.9330  116.3540 C   0  0  0  0  0  0  0  0  0  0  0  0
   31.4850   96.2090  117.6050 C   0  0  0  0  0  0  0  0  0  0  0  0
   30.2710   96.4350  117.5500 O   0  0  0  0  0  0  0  0  0  0  0  0
   32.1520   96.1960  118.7300 N   0  0  0  0  0  0  0  0  0  0  0  0
   31.4700   95.1910  113.6850 H   0  0  0  0  0  0  0  0  0  0  0  0
   30.6090   96.6590  115.1520 H   0  0  0  0  0  0  0  0  0  0  0  0
   32.2840   94.8570  116.1760 H   0  0  0  0  0  0  0  0  0  0  0  0
   33.3050   96.2490  116.5120 H   0  0  0  0  0  0  0  0  0  0  0  0
   31.6790   96.3740  119.5940 H   0  0  0  0  0  0  0  0  0  0  0  0
   33.1340   96.0090  118.7270 H   0  0  0  0  0  0  0  0  0  0  0  0
   32.3630   98.5850  113.8550 N   0  0  0  0  0  0  0  0  0  0  0  0
   32.7790   99.9590  113.6360 C   0  0  0  0  0  0  0  0  0  0  0  0
   31.8520  100.9570  114.3060 C   0  0  0  0  0  0  0  0  0  0  0  0
   32.2810  101.9830  114.7930 O   0  0  0  0  0  0  0  0  0  0  0  0
   32.8050  100.1920  112.1240 C   0  0  0  0  0  0  0  0  0  0  0  0
   33.1380  101.4990  111.7650 O   0  0  0  0  0  0  0  0  0  0  0  0
   32.3610   97.9840  113.0390 H   0  0  0  0  0  0  0  0  0  0  0  0
   33.7670  100.1300  114.0760 H   0  0  0  0  0  0  0  0  0  0  0  0
   33.5030   99.4680  111.6820 H   0  0  0  0  0  0  0  0  0  0  0  0
   31.8160   99.9880  111.7070 H   0  0  0  0  0  0  0  0  0  0  0  0
   33.9160  101.7620  112.2830 H   0  0  0  0  0  0  0  0  0  0  0  0
   31.5180  102.2420  117.9970 N   0  0  0  0  0  0  0  0  0  0  0  0
   32.5320  103.1330  118.5540 C   0  0  0  0  0  0  0  0  0  0  0  0
   31.9500  104.4940  118.8940 C   0  0  0  0  0  0  0  0  0  0  0  0
   32.5070  105.2230  119.7150 O   0  0  0  0  0  0  0  0  0  0  0  0
   33.6990  103.3040  117.5760 C   0  0  0  0  0  0  0  0  0  0  0  0
   34.6450  102.1440  117.5590 C   0  0  0  0  0  0  0  0  0  0  0  0
   35.7720  102.0910  118.3520 N   0  0  0  0  0  0  0  0  0  0  0  0
   34.6320  100.9930  116.8460 C   0  0  0  0  0  0  0  0  0  0  0  0
   36.4120  100.9570  118.1270 C   0  0  0  0  0  0  0  0  0  0  0  0
   35.7410  100.2740  117.2170 N   0  0  0  0  0  0  0  0  0  0  0  0
   31.5880  101.9590  117.0300 H   0  0  0  0  0  0  0  0  0  0  0  0
   32.9280  102.7030  119.4740 H   0  0  0  0  0  0  0  0  0  0  0  0
   33.3110  103.4430  116.5670 H   0  0  0  0  0  0  0  0  0  0  0  0
   34.2630  104.2000  117.8360 H   0  0  0  0  0  0  0  0  0  0  0  0
   36.0340  102.7560  119.0520 H   0  0  0  0  0  0  0  0  0  0  0  0
   33.9470  100.5930  116.0980 H   0  0  0  0  0  0  0  0  0  0  0  0
   37.3340  100.7240  118.6600 H   0  0  0  0  0  0  0  0  0  0  0  0
   38.1660   88.9000  113.8580 N   0  0  0  0  0  0  0  0  0  0  0  0
   39.4900   88.9280  114.4570 C   0  0  0  0  0  0  0  0  0  0  0  0
   39.8210   87.5480  115.0010 C   0  0  0  0  0  0  0  0  0  0  0  0
   39.0000   86.6540  115.1060 O   0  0  0  0  0  0  0  0  0  0  0  0
   39.5670   89.9780  115.5690 C   0  0  0  0  0  0  0  0  0  0  0  0
   38.9990   91.3250  115.1800 C   0  0  0  0  0  0  0  0  0  0  0  0
   37.6710   91.6380  115.4300 C   0  0  0  0  0  0  0  0  0  0  0  0
   39.7940   92.2810  114.5650 C   0  0  0  0  0  0  0  0  0  0  0  0
   37.1480   92.8670  115.0770 C   0  0  0  0  0  0  0  0  0  0  0  0
   39.2820   93.5130  114.2080 C   0  0  0  0  0  0  0  0  0  0  0  0
   37.9580   93.8030  114.4660 C   0  0  0  0  0  0  0  0  0  0  0  0
   37.4430   95.0290  114.1130 O   0  0  0  0  0  0  0  0  0  0  0  0
   37.3910   88.9880  114.4960 H   0  0  0  0  0  0  0  0  0  0  0  0
   40.1860   89.1840  113.6530 H   0  0  0  0  0  0  0  0  0  0  0  0
   39.0150   89.5840  116.4230 H   0  0  0  0  0  0  0  0  0  0  0  0
   40.6180   90.0890  115.8340 H   0  0  0  0  0  0  0  0  0  0  0  0
   37.0380   90.8940  115.9140 H   0  0  0  0  0  0  0  0  0  0  0  0
   40.8400   92.0460  114.3640 H   0  0  0  0  0  0  0  0  0  0  0  0
   36.1030   93.0990  115.2800 H   0  0  0  0  0  0  0  0  0  0  0  0
   39.9230   94.2500  113.7240 H   0  0  0  0  0  0  0  0  0  0  0  0
   33.0620  100.9100  123.1800 N   0  0  0  0  0  0  0  0  0  0  0  0
   31.8690  100.7550  122.3730 C   0  0  0  0  0  0  0  0  0  0  0  0
   30.6060  101.0720  123.1460 C   0  0  0  0  0  0  0  0  0  0  0  0
   29.7260  100.2650  123.3830 O   0  0  0  0  0  0  0  0  0  0  0  0
   31.7920   99.3320  121.8150 C   0  0  0  0  0  0  0  0  0  0  0  0
   33.0980   98.8250  121.2460 C   0  0  0  0  0  0  0  0  0  0  0  0
   34.0960   98.3380  122.0780 C   0  0  0  0  0  0  0  0  0  0  0  0
   33.3290   98.8330  119.8790 C   0  0  0  0  0  0  0  0  0  0  0  0
   35.2910   97.8740  121.5630 C   0  0  0  0  0  0  0  0  0  0  0  0
   34.5200   98.3700  119.3530 C   0  0  0  0  0  0  0  0  0  0  0  0
   35.4990   97.8920  120.1990 C   0  0  0  0  0  0  0  0  0  0  0  0
   36.6870   97.4290  119.6810 O   0  0  0  0  0  0  0  0  0  0  0  0
   33.6360  100.0760  123.2050 H   0  0  0  0  0  0  0  0  0  0  0  0
   31.9220  101.4720  121.5410 H   0  0  0  0  0  0  0  0  0  0  0  0
   31.4740   98.6820  122.6320 H   0  0  0  0  0  0  0  0  0  0  0  0
   31.0310   99.3330  121.0350 H   0  0  0  0  0  0  0  0  0  0  0  0
   33.9250   98.3260  123.1540 H   0  0  0  0  0  0  0  0  0  0  0  0
   32.5510   99.2130  119.2160 H   0  0  0  0  0  0  0  0  0  0  0  0
   36.0670   97.4940  122.2290 H   0  0  0  0  0  0  0  0  0  0  0  0
   34.6820   98.3860  118.2750 H   0  0  0  0  0  0  0  0  0  0  0  0
   36.7750  100.6580  114.0920 C   0  0  0  0  0  0  0  0  0  0  0  0
   37.9460   99.2330  114.1410 S   0  0  0  0  0  0  0  0  0  0  0  0
   37.2360   98.3110  112.6410 C   0  0  0  0  0  0  0  0  0  0  0  0
   38.3340   98.3040  111.5870 C   0  0  0  0  0  0  0  0  0  0  0  0
   37.9670   97.6530  110.2580 C   0  0  0  0  0  0  0  0  0  0  0  0
   38.0280   96.0540  110.2110 C   0  0  0  0  0  0  0  0  0  0  0  0
   37.0540   95.5930  109.5640 O   0  0  0  0  0  0  0  0  0  0  0  0
   38.9950   95.4930  110.6920 O   0  5  0  0  0  0  0  0  0  0  0  0
   36.5850   97.9400  109.8300 N   0  0  0  0  0  0  0  0  0  0  0  0
   37.0860   98.1600  115.3130 C   0  0  0  0  0  0  0  0  0  0  0  0
   36.5150  101.4320  112.8030 C   0  0  0  0  0  0  0  0  0  0  0  0
   35.4930  102.3780  113.1410 O   0  0  0  0  0  0  0  0  0  0  0  0
   35.4990  103.4170  112.1960 C   0  0  0  0  0  0  0  0  0  0  0  0
   36.9560  103.5570  111.6880 C   0  0  0  0  0  0  0  0  0  0  0  0
   37.6560  102.2610  112.1590 C   0  0  0  0  0  0  0  0  0  0  0  0
   38.2290  101.5570  111.0860 O   0  0  0  0  0  0  0  0  0  0  0  0
   37.5610  104.7370  112.1270 O   0  0  0  0  0  0  0  0  0  0  0  0
   34.9720  104.6210  112.7710 N   0  0  0  0  0  0  0  0  0  0  0  0
   34.6440  104.8660  114.0720 C   0  0  0  0  0  0  0  0  0  0  0  0
   34.1190  106.0380  114.2720 N   0  0  0  0  0  0  0  0  0  0  0  0
   34.0860  106.6230  113.0340 C   0  0  0  0  0  0  0  0  0  0  0  0
   33.5570  107.8260  112.5550 C   0  0  0  0  0  0  0  0  0  0  0  0
   33.0020  108.7390  113.3970 N   0  0  0  0  0  0  0  0  0  0  0  0
   33.6640  108.1080  111.2500 N   0  0  0  0  0  0  0  0  0  0  0  0
   34.2730  107.2170  110.4650 C   0  0  0  0  0  0  0  0  0  0  0  0
   34.7730  106.0440  110.7850 N   0  0  0  0  0  0  0  0  0  0  0  0
   34.6370  105.7460  112.0800 C   0  0  0  0  0  0  0  0  0  0  0  0
   35.8250  100.2660  114.4540 H   0  0  0  0  0  0  0  0  0  0  0  0
   37.1670  101.3410  114.8450 H   0  0  0  0  0  0  0  0  0  0  0  0
   36.9860   97.2950  112.9460 H   0  0  0  0  0  0  0  0  0  0  0  0
   36.3160   98.8030  112.3250 H   0  0  0  0  0  0  0  0  0  0  0  0
   39.1910   97.7660  111.9970 H   0  0  0  0  0  0  0  0  0  0  0  0
   38.6550   99.3310  111.3930 H   0  0  0  0  0  0  0  0  0  0  0  0
   38.6600   98.0020  109.4870 H   0  0  0  0  0  0  0  0  0  0  0  0
   36.5210   98.5780  109.0250 H   0  0  0  0  0  0  0  0  0  0  0  0
   36.3290   96.8740  109.6360 H   0  0  0  0  0  0  0  0  0  0  0  0
   36.0370   98.2900  110.6150 H   0  0  0  0  0  0  0  0  0  0  0  0
   37.6020   97.2060  115.2900 H   0  0  0  0  0  0  0  0  0  0  0  0
   36.0570   98.0180  114.9930 H   0  0  0  0  0  0  0  0  0  0  0  0
   37.1490   98.5800  116.3170 H   0  0  0  0  0  0  0  0  0  0  0  0
   36.1310  100.7700  112.0120 H   0  0  0  0  0  0  0  0  0  0  0  0
   34.8450  103.1660  111.3440 H   0  0  0  0  0  0  0  0  0  0  0  0
   36.9200  103.5470  110.5930 H   0  0  0  0  0  0  0  0  0  0  0  0
   38.4290  102.5000  112.9000 H   0  0  0  0  0  0  0  0  0  0  0  0
   38.3550  102.1570  110.3270 H   0  0  0  0  0  0  0  0  0  0  0  0
   38.1840  104.9790  111.4130 H   0  0  0  0  0  0  0  0  0  0  0  0
   34.7940  104.1280  114.8360 H   0  0  0  0  0  0  0  0  0  0  0  0
   32.4260  109.4630  112.9890 H   0  0  0  0  0  0  0  0  0  0  0  0
   32.7060  108.3550  114.2820 H   0  0  0  0  0  0  0  0  0  0  0  0
   34.3740  107.5070  109.4260 H   0  0  0  0  0  0  0  0  0  0  0  0
   35.3750   94.6580  118.0620 C   0  0  0  0  0  0  0  0  0  0  0  0
   34.8530   95.2660  119.0210 O   0  0  0  0  0  0  0  0  0  0  0  0
   34.9580   93.6210  117.5300 O   0  5  0  0  0  0  0  0  0  0  0  0
   36.6380   95.3060  117.4330 C   0  0  0  0  0  0  0  0  0  0  0  0
   36.6870   96.3580  117.6980 H   0  0  0  0  0  0  0  0  0  0  0  0
   37.5120   94.7870  117.8230 H   0  0  0  0  0  0  0  0  0  0  0  0
   36.6010   95.1750  116.3540 H   0  0  0  0  0  0  0  0  0  0  0  0
   41.4000  105.6960  119.1650 C   0  0  0  0  0  0  0  0  0  0  0  0
   42.1890  105.1310  119.9170 O   0  0  0  0  0  0  0  0  0  0  0  0
   40.2100  106.2340  119.6690 C   0  0  0  0  0  0  0  0  0  0  0  0
   39.5300  105.4250  119.9390 H   0  0  0  0  0  0  0  0  0  0  0  0
   40.4280  106.8350  120.5520 H   0  0  0  0  0  0  0  0  0  0  0  0
   39.7430  106.8610  118.9090 H   0  0  0  0  0  0  0  0  0  0  0  0
   47.8550   95.4610  114.8220 C   0  0  0  0  0  0  0  0  0  0  0  0
   47.5660   94.3000  115.1130 O   0  0  0  0  0  0  0  0  0  0  0  0
   49.0870   95.9980  115.2130 C   0  0  0  0  0  0  0  0  0  0  0  0
   49.1210   96.0790  116.3000 H   0  0  0  0  0  0  0  0  0  0  0  0
   49.8930   95.3460  114.8730 H   0  0  0  0  0  0  0  0  0  0  0  0
   49.2100   96.9870  114.7720 H   0  0  0  0  0  0  0  0  0  0  0  0
   33.6660  103.3200  106.7330 C   0  0  0  0  0  0  0  0  0  0  0  0
   33.9330  104.1810  107.5710 O   0  0  0  0  0  0  0  0  0  0  0  0
   32.8870  103.6410  105.6150 C   0  0  0  0  0  0  0  0  0  0  0  0
   33.5050  104.1480  104.8740 H   0  0  0  0  0  0  0  0  0  0  0  0
   32.4780  102.7270  105.1820 H   0  0  0  0  0  0  0  0  0  0  0  0
   32.0700  104.2970  105.9170 H   0  0  0  0  0  0  0  0  0  0  0  0
   38.9930  100.4730  106.6000 C   0  0  0  0  0  0  0  0  0  0  0  0
   39.4800   99.3740  106.3200 O   0  0  0  0  0  0  0  0  0  0  0  0
   38.0240  101.0510  105.7710 C   0  0  0  0  0  0  0  0  0  0  0  0
   38.3810  102.0170  105.4120 H   0  0  0  0  0  0  0  0  0  0  0  0
   37.8350  100.3950  104.9200 H   0  0  0  0  0  0  0  0  0  0  0  0
   37.1010  101.1910  106.3330 H   0  0  0  0  0  0  0  0  0  0  0  0
   36.9550  105.7740  105.1080 C   0  0  0  0  0  0  0  0  0  0  0  0
   36.5920  104.6410  105.4240 O   0  0  0  0  0  0  0  0  0  0  0  0
   36.8230  106.2270  103.7900 C   0  0  0  0  0  0  0  0  0  0  0  0
   37.7570  106.6910  103.4700 H   0  0  0  0  0  0  0  0  0  0  0  0
   36.5940  105.3850  103.1370 H   0  0  0  0  0  0  0  0  0  0  0  0
   36.0170  106.9590  103.7360 H   0  0  0  0  0  0  0  0  0  0  0  0
   35.6080  110.8930  107.4680 C   0  0  0  0  0  0  0  0  0  0  0  0
   36.1380  109.9920  108.1270 O   0  0  0  0  0  0  0  0  0  0  0  0
   36.1630  111.3090  106.2520 C   0  0  0  0  0  0  0  0  0  0  0  0
   37.2000  111.6060  106.4080 H   0  0  0  0  0  0  0  0  0  0  0  0
   36.1250  110.4880  105.5350 H   0  0  0  0  0  0  0  0  0  0  0  0
   35.5970  112.1550  105.8640 H   0  0  0  0  0  0  0  0  0  0  0  0
   33.3530   95.9010  113.5190 C   0  0  0  0  0  0  0  0  0  0  0  0
   34.2650   96.4080  114.1390 O   0  0  0  0  0  0  0  0  0  0  0  0
   33.6030   95.4210  112.2280 C   0  0  0  0  0  0  0  0  0  0  0  0
   34.6170   95.0210  112.1780 H   0  0  0  0  0  0  0  0  0  0  0  0
   32.8900   94.6330  111.9870 H   0  0  0  0  0  0  0  0  0  0  0  0
   33.4990   96.2360  111.5100 H   0  0  0  0  0  0  0  0  0  0  0  0
   30.5070  101.8020  118.7380 C   0  0  0  0  0  0  0  0  0  0  0  0
   30.3660  102.1170  119.9110 O   0  0  0  0  0  0  0  0  0  0  0  0
   29.5840  100.9490  118.1200 C   0  0  0  0  0  0  0  0  0  0  0  0
   29.7980   99.9170  118.4010 H   0  0  0  0  0  0  0  0  0  0  0  0
   28.5760  101.2110  118.4410 H   0  0  0  0  0  0  0  0  0  0  0  0
   29.6600  101.0540  117.0380 H   0  0  0  0  0  0  0  0  0  0  0  0
   37.9310   89.4950  112.7000 C   0  0  0  0  0  0  0  0  0  0  0  0
   38.7990   90.1010  112.0730 O   0  0  0  0  0  0  0  0  0  0  0  0
   36.6190   89.4100  112.2180 C   0  0  0  0  0  0  0  0  0  0  0  0
   36.6330   89.0480  111.1890 H   0  0  0  0  0  0  0  0  0  0  0  0
   36.0470   88.7200  112.8380 H   0  0  0  0  0  0  0  0  0  0  0  0
   36.1550   90.3960  112.2500 H   0  0  0  0  0  0  0  0  0  0  0  0
   34.0900  101.6430  122.7700 C   0  0  0  0  0  0  0  0  0  0  0  0
   34.0970  102.2650  121.7090 O   0  0  0  0  0  0  0  0  0  0  0  0
   35.1840  101.6900  123.6430 C   0  0  0  0  0  0  0  0  0  0  0  0
   34.8280  101.6900  124.6730 H   0  0  0  0  0  0  0  0  0  0  0  0
   35.8180  100.8190  123.4780 H   0  0  0  0  0  0  0  0  0  0  0  0
   35.7590  102.5980  123.4570 H   0  0  0  0  0  0  0  0  0  0  0  0
   43.7170  107.4850  117.6500 N   0  0  0  0  0  0  0  0  0  0  0  0
   42.8740  107.6250  118.1890 H   0  0  0  0  0  0  0  0  0  0  0  0
   44.6180  108.5470  117.5050 C   0  0  0  0  0  0  0  0  0  0  0  0
   44.7450  108.7740  116.4460 H   0  0  0  0  0  0  0  0  0  0  0  0
   45.5800  108.2700  117.9360 H   0  0  0  0  0  0  0  0  0  0  0  0
   44.2310  109.4250  118.0210 H   0  0  0  0  0  0  0  0  0  0  0  0
   46.8660   94.4680  111.9990 N   0  0  0  0  0  0  0  0  0  0  0  0
   47.4300   95.3010  111.9110 H   0  0  0  0  0  0  0  0  0  0  0  0
   47.1290   93.3740  111.1660 C   0  0  0  0  0  0  0  0  0  0  0  0
   46.5870   93.4920  110.2280 H   0  0  0  0  0  0  0  0  0  0  0  0
   46.8100   92.4560  111.6580 H   0  0  0  0  0  0  0  0  0  0  0  0
   48.1990   93.3210  110.9630 H   0  0  0  0  0  0  0  0  0  0  0  0
   36.7200  101.5920  106.3430 N   0  0  0  0  0  0  0  0  0  0  0  0
   36.2620  102.4120  105.9750 H   0  0  0  0  0  0  0  0  0  0  0  0
   37.8850  101.1240  105.7240 C   0  0  0  0  0  0  0  0  0  0  0  0
   37.7340  101.0850  104.6450 H   0  0  0  0  0  0  0  0  0  0  0  0
   38.1190  100.1260  106.0940 H   0  0  0  0  0  0  0  0  0  0  0  0
   38.7130  101.7950  105.9510 H   0  0  0  0  0  0  0  0  0  0  0  0
   42.2850   99.3240  107.8140 N   0  0  0  0  0  0  0  0  0  0  0  0
   41.8700   98.5490  108.3110 H   0  0  0  0  0  0  0  0  0  0  0  0
   43.5030   99.1360  107.1500 C   0  0  0  0  0  0  0  0  0  0  0  0
   43.3330   99.1220  106.0740 H   0  0  0  0  0  0  0  0  0  0  0  0
   43.9450   98.1900  107.4610 H   0  0  0  0  0  0  0  0  0  0  0  0
   44.1830   99.9510  107.4000 H   0  0  0  0  0  0  0  0  0  0  0  0
   37.6590  107.7320  109.3480 N   0  0  0  0  0  0  0  0  0  0  0  0
   37.2390  106.9590  109.8450 H   0  0  0  0  0  0  0  0  0  0  0  0
   38.0290  108.8720  110.0720 C   0  0  0  0  0  0  0  0  0  0  0  0
   38.6560  109.5100  109.4500 H   0  0  0  0  0  0  0  0  0  0  0  0
   38.5830  108.5740  110.9620 H   0  0  0  0  0  0  0  0  0  0  0  0
   37.1350  109.4200  110.3700 H   0  0  0  0  0  0  0  0  0  0  0  0
   29.7540  111.5710  110.6590 N   0  0  0  0  0  0  0  0  0  0  0  0
   30.5090  111.2530  111.2500 H   0  0  0  0  0  0  0  0  0  0  0  0
   28.9910  112.6730  111.0630 C   0  0  0  0  0  0  0  0  0  0  0  0
   29.0890  113.4720  110.3280 H   0  0  0  0  0  0  0  0  0  0  0  0
   29.3440  113.0250  112.0320 H   0  0  0  0  0  0  0  0  0  0  0  0
   27.9440  112.3810  111.1450 H   0  0  0  0  0  0  0  0  0  0  0  0
   30.5700  100.9120  113.9610 N   0  0  0  0  0  0  0  0  0  0  0  0
   30.2410  100.1630  113.3690 H   0  0  0  0  0  0  0  0  0  0  0  0
   29.6620  101.8820  114.4010 C   0  0  0  0  0  0  0  0  0  0  0  0
   29.7480  102.7710  113.7760 H   0  0  0  0  0  0  0  0  0  0  0  0
   29.8800  102.1430  115.4360 H   0  0  0  0  0  0  0  0  0  0  0  0
   28.6480  101.4890  114.3340 H   0  0  0  0  0  0  0  0  0  0  0  0
   30.8150  104.8240  118.2800 N   0  0  0  0  0  0  0  0  0  0  0  0
   30.3650  104.1550  117.6730 H   0  0  0  0  0  0  0  0  0  0  0  0
   30.2300  106.0830  118.4600 C   0  0  0  0  0  0  0  0  0  0  0  0
   30.2090  106.6140  117.5090 H   0  0  0  0  0  0  0  0  0  0  0  0
   30.8110  106.6550  119.1840 H   0  0  0  0  0  0  0  0  0  0  0  0
   29.2120  105.9610  118.8300 H   0  0  0  0  0  0  0  0  0  0  0  0
   40.5820   86.7850  114.2200 N   0  0  0  0  0  0  0  0  0  0  0  0
   40.9020   87.1670  113.3420 H   0  0  0  0  0  0  0  0  0  0  0  0
   40.9470   85.4800  114.5710 C   0  0  0  0  0  0  0  0  0  0  0  0
   41.3000   84.9500  113.6870 H   0  0  0  0  0  0  0  0  0  0  0  0
   40.0850   84.9600  114.9870 H   0  0  0  0  0  0  0  0  0  0  0  0
   41.7420   85.5120  115.3160 H   0  0  0  0  0  0  0  0  0  0  0  0
   29.5730  101.4960  122.4310 N   0  0  0  0  0  0  0  0  0  0  0  0
   29.6840  101.6570  121.4400 H   0  0  0  0  0  0  0  0  0  0  0  0
   28.3250  101.7260  123.0230 C   0  0  0  0  0  0  0  0  0  0  0  0
   28.4360  102.4400  123.8390 H   0  0  0  0  0  0  0  0  0  0  0  0
   27.9290  100.7880  123.4120 H   0  0  0  0  0  0  0  0  0  0  0  0
   27.6370  102.1270  122.2790 H   0  0  0  0  0  0  0  0  0  0  0  0
  1  2  1  0  0  0  0
  1 13  1  0  0  0  0
  1251  1  0  0  0  0
  2  3  1  0  0  0  0
  2  5  1  0  0  0  0
  2 14  1  0  0  0  0
  3  4  2  0  0  0  0
  3311  1  0  0  0  0
  4311  1  0  0  0  0
  5  6  1  0  0  0  0
  5 15  1  0  0  0  0
  5 16  1  0  0  0  0
  6  7  2  0  0  0  0
  6  8  1  0  0  0  0
  7  9  1  0  0  0  0
  7 17  1  0  0  0  0
  8 10  2  0  0  0  0
  8 18  1  0  0  0  0
  9 11  2  0  0  0  0
  9 19  1  0  0  0  0
 10 11  1  0  0  0  0
 10 20  1  0  0  0  0
 11 12  1  0  0  0  0
 21 22  1  0  0  0  0
 21 35  1  0  0  0  0
 21257  1  0  0  0  0
 22 23  1  0  0  0  0
 22 25  1  0  0  0  0
 22 36  1  0  0  0  0
 23 24  2  0  0  0  0
 23317  1  0  0  0  0
 25 26  1  0  0  0  0
 25 37  1  0  0  0  0
 25 38  1  0  0  0  0
 26 27  2  0  0  0  0
 26 28  1  0  0  0  0
 27 29  1  0  0  0  0
 27 39  1  0  0  0  0
 28 30  2  0  0  0  0
 28 31  1  0  0  0  0
 29 30  1  0  0  0  0
 29 40  1  0  0  0  0
 30 32  1  0  0  0  0
 31 33  2  0  0  0  0
 31 41  1  0  0  0  0
 32 34  2  0  0  0  0
 32 42  1  0  0  0  0
 33 34  1  0  0  0  0
 33 43  1  0  0  0  0
 34 44  1  0  0  0  0
 45 46  1  0  0  0  0
 45 50  1  0  0  0  0
 45263  1  0  0  0  0
 46 47  1  0  0  0  0
 46 49  1  0  0  0  0
 46 51  1  0  0  0  0
 47 48  2  0  0  0  0
 47274  1  0  0  0  0
 47323  1  0  0  0  0
 49 52  1  0  0  0  0
 49 53  1  0  0  0  0
 49 54  1  0  0  0  0
 55 56  1  0  0  0  0
 55 59  1  0  0  0  0
 55269  1  0  0  0  0
 56 57  1  0  0  0  0
 56 60  1  0  0  0  0
 56 61  1  0  0  0  0
 57 58  2  0  0  0  0
 57329  1  0  0  0  0
 62 63  1  0  0  0  0
 62 70  1  0  0  0  0
 62275  1  0  0  0  0
 63 64  1  0  0  0  0
 63 66  1  0  0  0  0
 63 71  1  0  0  0  0
 64 65  2  0  0  0  0
 64335  1  0  0  0  0
 66 67  1  0  0  0  0
 66 72  1  0  0  0  0
 66 73  1  0  0  0  0
 67 68  2  0  0  0  0
 67 69  1  0  0  0  0
 74 75  1  0  0  0  0
 74 82  1  0  0  0  0
 74281  1  0  0  0  0
 75 76  1  0  0  0  0
 75 78  1  0  0  0  0
 75 83  1  0  0  0  0
 76 77  2  0  0  0  0
 76 88  1  0  0  0  0
 78 79  1  0  0  0  0
 78 84  1  0  0  0  0
 78 85  1  0  0  0  0
 79 80  2  0  0  0  0
 79 81  1  0  0  0  0
 81 86  1  0  0  0  0
 81 87  1  0  0  0  0
 88 89  1  0  0  0  0
 88102  1  0  0  0  0
 89 90  1  0  0  0  0
 89 92  1  0  0  0  0
 89103  1  0  0  0  0
 90 91  2  0  0  0  0
 90341  1  0  0  0  0
 92 93  1  0  0  0  0
 92104  1  0  0  0  0
 92105  1  0  0  0  0
 93 94  2  0  0  0  0
 93 95  1  0  0  0  0
 94 96  1  0  0  0  0
 94106  1  0  0  0  0
 95 97  2  0  0  0  0
 95 98  1  0  0  0  0
 96 97  1  0  0  0  0
 96107  1  0  0  0  0
 97 99  1  0  0  0  0
 98100  2  0  0  0  0
 98108  1  0  0  0  0
 99101  2  0  0  0  0
 99109  1  0  0  0  0
100101  1  0  0  0  0
100110  1  0  0  0  0
101111  1  0  0  0  0
112113  1  0  0  0  0
112120  1  0  0  0  0
112287  1  0  0  0  0
113114  1  0  0  0  0
113116  1  0  0  0  0
113121  1  0  0  0  0
114115  2  0  0  0  0
114126  1  0  0  0  0
116117  1  0  0  0  0
116122  1  0  0  0  0
116123  1  0  0  0  0
117118  2  0  0  0  0
117119  1  0  0  0  0
119124  1  0  0  0  0
119125  1  0  0  0  0
126127  1  0  0  0  0
126132  1  0  0  0  0
127128  1  0  0  0  0
127130  1  0  0  0  0
127133  1  0  0  0  0
128129  2  0  0  0  0
128347  1  0  0  0  0
130131  1  0  0  0  0
130134  1  0  0  0  0
130135  1  0  0  0  0
131136  1  0  0  0  0
137138  1  0  0  0  0
137147  1  0  0  0  0
137293  1  0  0  0  0
138139  1  0  0  0  0
138141  1  0  0  0  0
138148  1  0  0  0  0
139140  2  0  0  0  0
139353  1  0  0  0  0
141142  1  0  0  0  0
141149  1  0  0  0  0
141150  1  0  0  0  0
142143  1  0  0  0  0
142144  2  0  0  0  0
143145  1  0  0  0  0
143151  1  0  0  0  0
144146  1  0  0  0  0
144152  1  0  0  0  0
145146  2  0  0  0  0
145153  1  0  0  0  0
154155  1  0  0  0  0
154166  1  0  0  0  0
154299  1  0  0  0  0
155156  1  0  0  0  0
155158  1  0  0  0  0
155167  1  0  0  0  0
156157  2  0  0  0  0
156359  1  0  0  0  0
157359  1  0  0  0  0
158159  1  0  0  0  0
158168  1  0  0  0  0
158169  1  0  0  0  0
159160  2  0  0  0  0
159161  1  0  0  0  0
160162  1  0  0  0  0
160170  1  0  0  0  0
161163  2  0  0  0  0
161171  1  0  0  0  0
162164  2  0  0  0  0
162172  1  0  0  0  0
163164  1  0  0  0  0
163173  1  0  0  0  0
164165  1  0  0  0  0
174175  1  0  0  0  0
174186  1  0  0  0  0
174305  1  0  0  0  0
175176  1  0  0  0  0
175178  1  0  0  0  0
175187  1  0  0  0  0
176177  2  0  0  0  0
176365  1  0  0  0  0
177365  1  0  0  0  0
178179  1  0  0  0  0
178188  1  0  0  0  0
178189  1  0  0  0  0
179180  2  0  0  0  0
179181  1  0  0  0  0
180182  1  0  0  0  0
180190  1  0  0  0  0
181183  2  0  0  0  0
181191  1  0  0  0  0
182184  2  0  0  0  0
182192  1  0  0  0  0
183184  1  0  0  0  0
183193  1  0  0  0  0
184185  1  0  0  0  0
194195  1  0  0  0  0
194204  1  0  0  0  0
194221  1  0  0  0  0
194222  1  0  0  0  0
195196  1  0  0  0  0
195203  1  0  0  0  0
196197  1  0  0  0  0
196223  1  0  0  0  0
196224  1  0  0  0  0
197198  1  0  0  0  0
197225  1  0  0  0  0
197226  1  0  0  0  0
198199  1  0  0  0  0
198202  1  0  0  0  0
198227  1  0  0  0  0
199200  2  0  0  0  0
199201  1  0  0  0  0
200229  1  0  0  0  0
202228  1  0  0  0  0
202229  1  0  0  0  0
202230  1  0  0  0  0
203231  1  0  0  0  0
203232  1  0  0  0  0
203233  1  0  0  0  0
204205  1  0  0  0  0
204208  1  0  0  0  0
204234  1  0  0  0  0
205206  1  0  0  0  0
206207  1  0  0  0  0
206211  1  0  0  0  0
206235  1  0  0  0  0
207208  1  0  0  0  0
207210  1  0  0  0  0
207236  1  0  0  0  0
208209  1  0  0  0  0
208237  1  0  0  0  0
209238  1  0  0  0  0
210239  1  0  0  0  0
211212  1  0  0  0  0
211220  1  0  0  0  0
212213  1  0  0  0  0
212240  1  0  0  0  0
213214  1  0  0  0  0
214215  1  0  0  0  0
214220  1  0  0  0  0
215216  1  0  0  0  0
215217  1  0  0  0  0
216241  1  0  0  0  0
216242  1  0  0  0  0
217218  1  0  0  0  0
218219  1  0  0  0  0
218243  1  0  0  0  0
219220  1  0  0  0  0
244245  2  0  0  0  0
244246  1  0  0  0  0
244247  1  0  0  0  0
247248  1  0  0  0  0
247249  1  0  0  0  0
247250  1  0  0  0  0
251252  1  0  0  0  0
251253  1  0  0  0  0
253254  1  0  0  0  0
253255  1  0  0  0  0
253256  1  0  0  0  0
257258  1  0  0  0  0
257259  1  0  0  0  0
259260  1  0  0  0  0
259261  1  0  0  0  0
259262  1  0  0  0  0
263264  1  0  0  0  0
263265  1  0  0  0  0
265266  1  0  0  0  0
265267  1  0  0  0  0
265268  1  0  0  0  0
269270  1  0  0  0  0
269271  1  0  0  0  0
269325  1  0  0  0  0
269327  1  0  0  0  0
269328  1  0  0  0  0
271272  1  0  0  0  0
271273  1  0  0  0  0
271274  1  0  0  0  0
271323  1  0  0  0  0
271325  1  0  0  0  0
271326  1  0  0  0  0
271327  1  0  0  0  0
271328  1  0  0  0  0
272325  1  0  0  0  0
273325  1  0  0  0  0
274323  1  0  0  0  0
274325  1  0  0  0  0
275276  1  0  0  0  0
275277  1  0  0  0  0
277278  1  0  0  0  0
277279  1  0  0  0  0
277280  1  0  0  0  0
281282  1  0  0  0  0
281283  1  0  0  0  0
283284  1  0  0  0  0
283285  1  0  0  0  0
283286  1  0  0  0  0
287288  1  0  0  0  0
287289  1  0  0  0  0
289290  1  0  0  0  0
289291  1  0  0  0  0
289292  1  0  0  0  0
293294  1  0  0  0  0
293295  1  0  0  0  0
295296  1  0  0  0  0
295297  1  0  0  0  0
295298  1  0  0  0  0
299300  1  0  0  0  0
299301  1  0  0  0  0
301302  1  0  0  0  0
301303  1  0  0  0  0
301304  1  0  0  0  0
305306  1  0  0  0  0
305307  1  0  0  0  0
307308  1  0  0  0  0
307309  1  0  0  0  0
307310  1  0  0  0  0
311312  1  0  0  0  0
311313  1  0  0  0  0
313314  1  0  0  0  0
313315  1  0  0  0  0
313316  1  0  0  0  0
317318  1  0  0  0  0
317319  1  0  0  0  0
319320  1  0  0  0  0
319321  1  0  0  0  0
319322  1  0  0  0  0
323324  1  0  0  0  0
323325  1  0  0  0  0
325326  1  0  0  0  0
325327  1  0  0  0  0
325328  1  0  0  0  0
329330  1  0  0  0  0
329331  1  0  0  0  0
331332  1  0  0  0  0
331333  1  0  0  0  0
331334  1  0  0  0  0
335336  1  0  0  0  0
335337  1  0  0  0  0
337338  1  0  0  0  0
337339  1  0  0  0  0
337340  1  0  0  0  0
341342  1  0  0  0  0
341343  1  0  0  0  0
343344  1  0  0  0  0
343345  1  0  0  0  0
343346  1  0  0  0  0
347348  1  0  0  0  0
347349  1  0  0  0  0
349350  1  0  0  0  0
349351  1  0  0  0  0
349352  1  0  0  0  0
353354  1  0  0  0  0
353355  1  0  0  0  0
355356  1  0  0  0  0
355357  1  0  0  0  0
355358  1  0  0  0  0
359360  1  0  0  0  0
359361  1  0  0  0  0
361362  1  0  0  0  0
361363  1  0  0  0  0
361364  1  0  0  0  0
365366  1  0  0  0  0
365367  1  0  0  0  0
367368  1  0  0  0  0
367369  1  0  0  0  0
367370  1  0  0  0  0
M  END
