temp_xtb_pdb
  PyMOL2.4          3D                             0

223221  0  0  0  0  0  0  0  0999 V2000
   41.6320  105.8330  117.8650 N   0  0  0  0  0  0  0  0  0  0  0  0
   42.8440  105.2700  117.2750 C   0  0  0  0  0  0  0  0  0  0  0  0
   43.8930  106.3260  116.9740 C   0  0  0  0  0  0  0  0  0  0  0  0
   44.9220  106.0450  116.3540 O   0  0  0  0  0  0  0  0  0  0  0  0
   42.5020  104.5070  115.9930 C   0  0  0  0  0  0  0  0  0  0  0  0
   41.5590  103.3430  116.2050 C   0  0  0  0  0  0  0  0  0  0  0  0
   40.1900  103.5430  116.2990 C   0  0  0  0  0  0  0  0  0  0  0  0
   42.0430  102.0470  116.3100 C   0  0  0  0  0  0  0  0  0  0  0  0
   39.3250  102.4830  116.4930 C   0  0  0  0  0  0  0  0  0  0  0  0
   41.1870  100.9800  116.5030 C   0  0  0  0  0  0  0  0  0  0  0  0
   39.8280  101.2020  116.5950 C   0  0  0  0  0  0  0  0  0  0  0  0
   38.9720  100.1430  116.7870 O   0  0  0  0  0  0  0  0  0  0  0  0
   40.9790  106.3240  117.2720 H   0  0  0  0  0  0  0  0  0  0  0  0
   43.3200  104.5920  117.9840 H   0  0  0  0  0  0  0  0  0  0  0  0
   42.0480  105.2210  115.3040 H   0  0  0  0  0  0  0  0  0  0  0  0
   43.4400  104.1440  115.5740 H   0  0  0  0  0  0  0  0  0  0  0  0
   39.7990  104.5570  116.2170 H   0  0  0  0  0  0  0  0  0  0  0  0
   43.1170  101.8790  116.2380 H   0  0  0  0  0  0  0  0  0  0  0  0
   38.2510  102.6550  116.5650 H   0  0  0  0  0  0  0  0  0  0  0  0
   41.5870   99.9690  116.5840 H   0  0  0  0  0  0  0  0  0  0  0  0
   34.0480  101.1110  107.1340 N   0  0  0  0  0  0  0  0  0  0  0  0
   34.8890  100.7610  108.2710 C   0  0  0  0  0  0  0  0  0  0  0  0
   36.1850  100.1460  107.7740 C   0  0  0  0  0  0  0  0  0  0  0  0
   36.6860   99.1900  108.3630 O   0  0  0  0  0  0  0  0  0  0  0  0
   34.1720   99.7860  109.1650 C   0  0  0  0  0  0  0  0  0  0  0  0
   33.7900  100.3930  106.4720 H   0  0  0  0  0  0  0  0  0  0  0  0
   35.0940  101.6720  108.8330 H   0  0  0  0  0  0  0  0  0  0  0  0
   34.8100   99.5320  110.0120 H   0  0  0  0  0  0  0  0  0  0  0  0
   33.2490  100.2370  109.5300 H   0  0  0  0  0  0  0  0  0  0  0  0
   33.9380   98.8830  108.6040 H   0  0  0  0  0  0  0  0  0  0  0  0
   36.9870  109.5670  105.9040 N   0  0  0  0  0  0  0  0  0  0  0  0
   35.6080  109.9970  106.0280 C   0  0  0  0  0  0  0  0  0  0  0  0
   35.0550  109.6300  107.4010 C   0  0  0  0  0  0  0  0  0  0  0  0
   35.5860  108.7430  108.0790 O   0  0  0  0  0  0  0  0  0  0  0  0
   34.7720  109.3610  104.9310 C   0  0  0  0  0  0  0  0  0  0  0  0
   37.3790  108.9600  106.6100 H   0  0  0  0  0  0  0  0  0  0  0  0
   35.5800  111.0810  105.9170 H   0  0  0  0  0  0  0  0  0  0  0  0
   33.7360  109.6860  105.0280 H   0  0  0  0  0  0  0  0  0  0  0  0
   35.1580  109.6630  103.9580 H   0  0  0  0  0  0  0  0  0  0  0  0
   34.8210  108.2760  105.0200 H   0  0  0  0  0  0  0  0  0  0  0  0
   33.9860  110.3020  107.8140 N   0  0  0  0  0  0  0  0  0  0  0  0
   33.3810  110.0290  109.1080 C   0  0  0  0  0  0  0  0  0  0  0  0
   31.8830  109.8470  108.9730 C   0  0  0  0  0  0  0  0  0  0  0  0
   31.2070  110.7010  108.4110 O   0  0  0  0  0  0  0  0  0  0  0  0
   33.6980  111.1360  110.0960 C   0  0  0  0  0  0  0  0  0  0  0  0
   33.3410  110.7690  111.5090 C   0  0  0  0  0  0  0  0  0  0  0  0
   32.2260  110.3110  111.7820 O   0  0  0  0  0  0  0  0  0  0  0  0
   34.2670  110.9610  112.4140 N   0  0  0  0  0  0  0  0  0  0  0  0
   33.5820  111.0150  107.2230 H   0  0  0  0  0  0  0  0  0  0  0  0
   33.8210  109.1150  109.5090 H   0  0  0  0  0  0  0  0  0  0  0  0
   34.7630  111.3690  110.0510 H   0  0  0  0  0  0  0  0  0  0  0  0
   33.1540  112.0390  109.8180 H   0  0  0  0  0  0  0  0  0  0  0  0
   34.0850  110.7350  113.3710 H   0  0  0  0  0  0  0  0  0  0  0  0
   35.1550  111.3340  112.1490 H   0  0  0  0  0  0  0  0  0  0  0  0
   33.1910   94.0990  111.6500 N   0  0  0  0  0  0  0  0  0  0  0  0
   34.2100   94.1600  112.6860 C   0  0  0  0  0  0  0  0  0  0  0  0
   33.9030   94.8930  113.9840 C   0  0  0  0  0  0  0  0  0  0  0  0
   34.8210   95.3610  114.6600 O   0  0  0  0  0  0  0  0  0  0  0  0
   32.5560   93.3130  111.6300 H   0  0  0  0  0  0  0  0  0  0  0  0
   34.4890   93.1490  112.9820 H   0  0  0  0  0  0  0  0  0  0  0  0
   35.1050   94.6370  112.2880 H   0  0  0  0  0  0  0  0  0  0  0  0
   32.6310   94.9710  114.3520 N   0  0  0  0  0  0  0  0  0  0  0  0
   32.2360   95.6780  115.5620 C   0  0  0  0  0  0  0  0  0  0  0  0
   32.8430   97.0770  115.5460 C   0  0  0  0  0  0  0  0  0  0  0  0
   33.5420   97.4800  116.4780 O   0  0  0  0  0  0  0  0  0  0  0  0
   32.6560   94.9130  116.8040 C   0  0  0  0  0  0  0  0  0  0  0  0
   31.9500   95.3910  118.0430 C   0  0  0  0  0  0  0  0  0  0  0  0
   30.7520   95.6960  118.0110 O   0  0  0  0  0  0  0  0  0  0  0  0
   32.6690   95.4620  119.1340 N   0  0  0  0  0  0  0  0  0  0  0  0
   31.9200   94.5320  113.7840 H   0  0  0  0  0  0  0  0  0  0  0  0
   31.1470   95.7420  115.5860 H   0  0  0  0  0  0  0  0  0  0  0  0
   32.4450   93.8520  116.6670 H   0  0  0  0  0  0  0  0  0  0  0  0
   33.7310   95.0180  116.9500 H   0  0  0  0  0  0  0  0  0  0  0  0
   32.2520   95.7740  119.9880 H   0  0  0  0  0  0  0  0  0  0  0  0
   33.6350   95.2050  119.1130 H   0  0  0  0  0  0  0  0  0  0  0  0
   32.5780   97.8070  114.4660 N   0  0  0  0  0  0  0  0  0  0  0  0
   33.1150   99.1470  114.2920 C   0  0  0  0  0  0  0  0  0  0  0  0
   32.1460  100.2220  114.7500 C   0  0  0  0  0  0  0  0  0  0  0  0
   32.5460  101.1730  115.4130 O   0  0  0  0  0  0  0  0  0  0  0  0
   33.4720   99.3720  112.8360 C   0  0  0  0  0  0  0  0  0  0  0  0
   33.7330  100.7260  112.5870 O   0  0  0  0  0  0  0  0  0  0  0  0
   31.9850   97.4180  113.7470 H   0  0  0  0  0  0  0  0  0  0  0  0
   34.0200   99.2380  114.8950 H   0  0  0  0  0  0  0  0  0  0  0  0
   34.3480   98.7770  112.5800 H   0  0  0  0  0  0  0  0  0  0  0  0
   32.6520   99.0350  112.2040 H   0  0  0  0  0  0  0  0  0  0  0  0
   34.6480  100.8710  112.8400 H   0  0  0  0  0  0  0  0  0  0  0  0
   38.6900   88.4370  114.8750 N   0  0  0  0  0  0  0  0  0  0  0  0
   40.0120   88.5300  115.4710 C   0  0  0  0  0  0  0  0  0  0  0  0
   40.3810   87.1840  116.0730 C   0  0  0  0  0  0  0  0  0  0  0  0
   39.9550   86.8500  117.1760 O   0  0  0  0  0  0  0  0  0  0  0  0
   40.0590   89.6280  116.5350 C   0  0  0  0  0  0  0  0  0  0  0  0
   39.3000   90.8810  116.1570 C   0  0  0  0  0  0  0  0  0  0  0  0
   38.0370   91.1320  116.6720 C   0  0  0  0  0  0  0  0  0  0  0  0
   39.8510   91.8110  115.2880 C   0  0  0  0  0  0  0  0  0  0  0  0
   37.3390   92.2740  116.3300 C   0  0  0  0  0  0  0  0  0  0  0  0
   39.1630   92.9570  114.9390 C   0  0  0  0  0  0  0  0  0  0  0  0
   37.9070   93.1850  115.4620 C   0  0  0  0  0  0  0  0  0  0  0  0
   37.2180   94.3260  115.1190 O   0  0  0  0  0  0  0  0  0  0  0  0
   37.9560   87.9590  115.3770 H   0  0  0  0  0  0  0  0  0  0  0  0
   40.7470   88.7720  114.7030 H   0  0  0  0  0  0  0  0  0  0  0  0
   39.6360   89.2100  117.4500 H   0  0  0  0  0  0  0  0  0  0  0  0
   41.1080   89.8740  116.6980 H   0  0  0  0  0  0  0  0  0  0  0  0
   37.5940   90.4080  117.3570 H   0  0  0  0  0  0  0  0  0  0  0  0
   40.8430   91.6240  114.8770 H   0  0  0  0  0  0  0  0  0  0  0  0
   36.3470   92.4580  116.7420 H   0  0  0  0  0  0  0  0  0  0  0  0
   39.6130   93.6750  114.2530 H   0  0  0  0  0  0  0  0  0  0  0  0
   36.9950   99.9740  113.9200 C   0  0  0  0  0  0  0  0  0  0  0  0
   38.0580   98.5380  113.6110 S   0  0  0  0  0  0  0  0  0  0  0  0
   37.3600   97.9610  112.0400 C   0  0  0  0  0  0  0  0  0  0  0  0
   38.3770   98.1780  110.9180 C   0  0  0  0  0  0  0  0  0  0  0  0
   38.4660   96.9160  110.0570 C   0  0  0  0  0  0  0  0  0  0  0  0
   39.7420   96.1790  110.3750 C   0  0  0  0  0  0  0  0  0  0  0  0
   39.7300   95.2570  111.1720 O   0  0  0  0  0  0  0  0  0  0  0  0
   40.7850   96.5070  109.8360 O   0  5  0  0  0  0  0  0  0  0  0  0
   37.3150   96.0480  110.3420 N   0  0  0  0  0  0  0  0  0  0  0  0
   37.3080   97.3410  114.7470 C   0  0  0  0  0  0  0  0  0  0  0  0
   37.2270  101.0250  112.8320 C   0  0  0  0  0  0  0  0  0  0  0  0
   36.1420  101.9680  112.8230 O   0  0  0  0  0  0  0  0  0  0  0  0
   36.7010  103.2500  112.4650 C   0  0  0  0  0  0  0  0  0  0  0  0
   38.0480  103.2850  113.2330 C   0  0  0  0  0  0  0  0  0  0  0  0
   38.5190  101.8100  113.1280 C   0  0  0  0  0  0  0  0  0  0  0  0
   39.4590  101.6600  112.0620 O   0  0  0  0  0  0  0  0  0  0  0  0
   38.9770  104.1620  112.5940 O   0  0  0  0  0  0  0  0  0  0  0  0
   35.8250  104.3370  112.9070 N   0  0  0  0  0  0  0  0  0  0  0  0
   35.5230  104.6560  114.1990 C   0  0  0  0  0  0  0  0  0  0  0  0
   34.7150  105.6760  114.2280 N   0  0  0  0  0  0  0  0  0  0  0  0
   34.4480  106.0760  112.9610 C   0  0  0  0  0  0  0  0  0  0  0  0
   33.6640  107.0930  112.3910 C   0  0  0  0  0  0  0  0  0  0  0  0
   32.9460  107.9650  113.1900 N   0  0  0  0  0  0  0  0  0  0  0  0
   33.6310  107.2000  111.0660 N   0  0  0  0  0  0  0  0  0  0  0  0
   34.3160  106.3730  110.2970 C   0  0  0  0  0  0  0  0  0  0  0  0
   35.0620  105.4050  110.7870 N   0  0  0  0  0  0  0  0  0  0  0  0
   35.1610  105.2240  112.1000 C   0  0  0  0  0  0  0  0  0  0  0  0
   35.9490   99.6630  113.9070 H   0  0  0  0  0  0  0  0  0  0  0  0
   37.2340  100.4000  114.8930 H   0  0  0  0  0  0  0  0  0  0  0  0
   37.1230   96.8990  112.1150 H   0  0  0  0  0  0  0  0  0  0  0  0
   36.4500   98.5200  111.8190 H   0  0  0  0  0  0  0  0  0  0  0  0
   38.0610   99.0180  110.2990 H   0  0  0  0  0  0  0  0  0  0  0  0
   39.3550   98.3930  111.3500 H   0  0  0  0  0  0  0  0  0  0  0  0
   38.4590   97.1930  109.0030 H   0  0  0  0  0  0  0  0  0  0  0  0
   36.3780   96.4120  110.4370 H   0  0  0  0  0  0  0  0  0  0  0  0
   37.4680   95.1890  109.8350 H   0  0  0  0  0  0  0  0  0  0  0  0
   37.3610   95.8180  111.3230 H   0  0  0  0  0  0  0  0  0  0  0  0
   37.6340   97.5520  115.7660 H   0  0  0  0  0  0  0  0  0  0  0  0
   36.2220   97.4170  114.6920 H   0  0  0  0  0  0  0  0  0  0  0  0
   37.6160   96.3320  114.4700 H   0  0  0  0  0  0  0  0  0  0  0  0
   37.3030  100.5380  111.8580 H   0  0  0  0  0  0  0  0  0  0  0  0
   36.8710  103.3090  111.3900 H   0  0  0  0  0  0  0  0  0  0  0  0
   37.8950  103.5720  114.2730 H   0  0  0  0  0  0  0  0  0  0  0  0
   38.9580  101.4810  114.0710 H   0  0  0  0  0  0  0  0  0  0  0  0
   39.0560  102.0550  111.2770 H   0  0  0  0  0  0  0  0  0  0  0  0
   38.6980  104.2430  111.6720 H   0  0  0  0  0  0  0  0  0  0  0  0
   35.8990  104.1380  115.0680 H   0  0  0  0  0  0  0  0  0  0  0  0
   32.9790  107.8770  114.1550 H   0  0  0  0  0  0  0  0  0  0  0  0
   32.4100  108.6640  112.7840 H   0  0  0  0  0  0  0  0  0  0  0  0
   34.2610  106.4950  109.2250 H   0  0  0  0  0  0  0  0  0  0  0  0
   36.5690   94.3230  119.0150 C   0  0  0  0  0  0  0  0  0  0  0  0
   35.4020   94.4360  119.3520 O   0  0  0  0  0  0  0  0  0  0  0  0
   37.2080   93.3420  119.3540 O   0  5  0  0  0  0  0  0  0  0  0  0
   37.2200   95.3960  118.1810 C   0  0  0  0  0  0  0  0  0  0  0  0
   37.6720   96.1420  118.8350 H   0  0  0  0  0  0  0  0  0  0  0  0
   37.9910   94.9500  117.5520 H   0  0  0  0  0  0  0  0  0  0  0  0
   36.4680   95.8730  117.5500 H   0  0  0  0  0  0  0  0  0  0  0  0
   41.4000  105.6960  119.1650 C   0  0  0  0  0  0  0  0  0  0  0  0
   42.1890  105.1310  119.9170 O   0  0  0  0  0  0  0  0  0  0  0  0
   40.2100  106.2340  119.6690 C   0  0  0  0  0  0  0  0  0  0  0  0
   39.5300  105.4250  119.9390 H   0  0  0  0  0  0  0  0  0  0  0  0
   40.4280  106.8350  120.5520 H   0  0  0  0  0  0  0  0  0  0  0  0
   39.7430  106.8610  118.9090 H   0  0  0  0  0  0  0  0  0  0  0  0
   33.6060  102.3500  106.9370 C   0  0  0  0  0  0  0  0  0  0  0  0
   33.8460  103.2760  107.7120 O   0  0  0  0  0  0  0  0  0  0  0  0
   32.8230  102.5700  105.7980 C   0  0  0  0  0  0  0  0  0  0  0  0
   33.4560  102.9260  104.9840 H   0  0  0  0  0  0  0  0  0  0  0  0
   32.3410  101.6380  105.5010 H   0  0  0  0  0  0  0  0  0  0  0  0
   32.0610  103.3180  106.0190 H   0  0  0  0  0  0  0  0  0  0  0  0
   37.7330  109.9600  104.8790 C   0  0  0  0  0  0  0  0  0  0  0  0
   37.2950  110.6790  103.9860 O   0  0  0  0  0  0  0  0  0  0  0  0
   39.0560  109.5030  104.8480 C   0  0  0  0  0  0  0  0  0  0  0  0
   39.4230  109.3810  105.8680 H   0  0  0  0  0  0  0  0  0  0  0  0
   39.0980  108.5450  104.3290 H   0  0  0  0  0  0  0  0  0  0  0  0
   39.6790  110.2280  104.3230 H   0  0  0  0  0  0  0  0  0  0  0  0
   33.0690   95.0490  110.7240 C   0  0  0  0  0  0  0  0  0  0  0  0
   33.7680   96.0480  110.6940 O   0  0  0  0  0  0  0  0  0  0  0  0
   32.0720   94.8350  109.7650 C   0  0  0  0  0  0  0  0  0  0  0  0
   32.5170   94.4050  108.8670 H   0  0  0  0  0  0  0  0  0  0  0  0
   31.3250   94.1490  110.1640 H   0  0  0  0  0  0  0  0  0  0  0  0
   31.5970   95.7840  109.5160 H   0  0  0  0  0  0  0  0  0  0  0  0
   38.4410   88.9700  113.6880 C   0  0  0  0  0  0  0  0  0  0  0  0
   39.2940   89.5660  113.0330 O   0  0  0  0  0  0  0  0  0  0  0  0
   37.1330   88.8270  113.2100 C   0  0  0  0  0  0  0  0  0  0  0  0
   37.1440   88.2440  112.2890 H   0  0  0  0  0  0  0  0  0  0  0  0
   36.5260   88.3140  113.9570 H   0  0  0  0  0  0  0  0  0  0  0  0
   36.7080   89.8110  113.0120 H   0  0  0  0  0  0  0  0  0  0  0  0
   43.6350  107.5410  117.4310 N   0  0  0  0  0  0  0  0  0  0  0  0
   42.7770  107.7060  117.9380 H   0  0  0  0  0  0  0  0  0  0  0  0
   44.5220  108.6050  117.2290 C   0  0  0  0  0  0  0  0  0  0  0  0
   44.6050  108.8120  116.1620 H   0  0  0  0  0  0  0  0  0  0  0  0
   45.5030  108.3410  117.6250 H   0  0  0  0  0  0  0  0  0  0  0  0
   44.1520  109.4910  117.7440 H   0  0  0  0  0  0  0  0  0  0  0  0
   36.7140  100.6850  106.6790 N   0  0  0  0  0  0  0  0  0  0  0  0
   36.2480  101.4800  106.2650 H   0  0  0  0  0  0  0  0  0  0  0  0
   37.8830  100.1950  106.0850 C   0  0  0  0  0  0  0  0  0  0  0  0
   37.7520  100.1500  105.0050 H   0  0  0  0  0  0  0  0  0  0  0  0
   38.0940   99.1960  106.4670 H   0  0  0  0  0  0  0  0  0  0  0  0
   38.7170  100.8550  106.3240 H   0  0  0  0  0  0  0  0  0  0  0  0
   31.3710  108.7400  109.5070 N   0  0  0  0  0  0  0  0  0  0  0  0
   31.9890  108.0910  109.9740 H   0  0  0  0  0  0  0  0  0  0  0  0
   30.0030  108.4500  109.4400 C   0  0  0  0  0  0  0  0  0  0  0  0
   29.5980  108.8210  108.4990 H   0  0  0  0  0  0  0  0  0  0  0  0
   29.4880  108.9300  110.2720 H   0  0  0  0  0  0  0  0  0  0  0  0
   29.8560  107.3710  109.4990 H   0  0  0  0  0  0  0  0  0  0  0  0
   30.8750  100.0750  114.3940 N   0  0  0  0  0  0  0  0  0  0  0  0
   30.5980   99.2650  113.8570 H   0  0  0  0  0  0  0  0  0  0  0  0
   29.9060  101.0220  114.7460 C   0  0  0  0  0  0  0  0  0  0  0  0
   29.9130  101.8360  114.0220 H   0  0  0  0  0  0  0  0  0  0  0  0
   30.1260  101.4160  115.7390 H   0  0  0  0  0  0  0  0  0  0  0  0
   28.9230  100.5510  114.7550 H   0  0  0  0  0  0  0  0  0  0  0  0
   41.1780   86.4180  115.3330 N   0  0  0  0  0  0  0  0  0  0  0  0
   41.4820   86.7670  114.4350 H   0  0  0  0  0  0  0  0  0  0  0  0
   41.6060   85.1530  115.7540 C   0  0  0  0  0  0  0  0  0  0  0  0
   42.0260   84.6110  114.9070 H   0  0  0  0  0  0  0  0  0  0  0  0
   40.7600   84.5980  116.1580 H   0  0  0  0  0  0  0  0  0  0  0  0
   42.3660   85.2650  116.5270 H   0  0  0  0  0  0  0  0  0  0  0  0
  1  2  1  0  0  0  0
  1 13  1  0  0  0  0
  1164  1  0  0  0  0
  2  3  1  0  0  0  0
  2  5  1  0  0  0  0
  2 14  1  0  0  0  0
  3  4  2  0  0  0  0
  3194  1  0  0  0  0
  5  6  1  0  0  0  0
  5 15  1  0  0  0  0
  5 16  1  0  0  0  0
  6  7  2  0  0  0  0
  6  8  1  0  0  0  0
  7  9  1  0  0  0  0
  7 17  1  0  0  0  0
  8 10  2  0  0  0  0
  8 18  1  0  0  0  0
  9 11  2  0  0  0  0
  9 19  1  0  0  0  0
 10 11  1  0  0  0  0
 10 20  1  0  0  0  0
 11 12  1  0  0  0  0
 21 22  1  0  0  0  0
 21 26  1  0  0  0  0
 21170  1  0  0  0  0
 22 23  1  0  0  0  0
 22 25  1  0  0  0  0
 22 27  1  0  0  0  0
 23 24  2  0  0  0  0
 23200  1  0  0  0  0
 25 28  1  0  0  0  0
 25 29  1  0  0  0  0
 25 30  1  0  0  0  0
 31 32  1  0  0  0  0
 31 36  1  0  0  0  0
 31176  1  0  0  0  0
 32 33  1  0  0  0  0
 32 35  1  0  0  0  0
 32 37  1  0  0  0  0
 33 34  2  0  0  0  0
 33 41  1  0  0  0  0
 35 38  1  0  0  0  0
 35 39  1  0  0  0  0
 35 40  1  0  0  0  0
 41 42  1  0  0  0  0
 41 49  1  0  0  0  0
 42 43  1  0  0  0  0
 42 45  1  0  0  0  0
 42 50  1  0  0  0  0
 43 44  2  0  0  0  0
 43206  1  0  0  0  0
 45 46  1  0  0  0  0
 45 51  1  0  0  0  0
 45 52  1  0  0  0  0
 46 47  2  0  0  0  0
 46 48  1  0  0  0  0
 48 53  1  0  0  0  0
 48 54  1  0  0  0  0
 55 56  1  0  0  0  0
 55 59  1  0  0  0  0
 55182  1  0  0  0  0
 56 57  1  0  0  0  0
 56 60  1  0  0  0  0
 56 61  1  0  0  0  0
 57 58  2  0  0  0  0
 57 62  1  0  0  0  0
 62 63  1  0  0  0  0
 62 70  1  0  0  0  0
 63 64  1  0  0  0  0
 63 66  1  0  0  0  0
 63 71  1  0  0  0  0
 64 65  2  0  0  0  0
 64 76  1  0  0  0  0
 66 67  1  0  0  0  0
 66 72  1  0  0  0  0
 66 73  1  0  0  0  0
 67 68  2  0  0  0  0
 67 69  1  0  0  0  0
 69 74  1  0  0  0  0
 69 75  1  0  0  0  0
 76 77  1  0  0  0  0
 76 82  1  0  0  0  0
 77 78  1  0  0  0  0
 77 80  1  0  0  0  0
 77 83  1  0  0  0  0
 78 79  2  0  0  0  0
 78212  1  0  0  0  0
 80 81  1  0  0  0  0
 80 84  1  0  0  0  0
 80 85  1  0  0  0  0
 81 86  1  0  0  0  0
 87 88  1  0  0  0  0
 87 99  1  0  0  0  0
 87188  1  0  0  0  0
 88 89  1  0  0  0  0
 88 91  1  0  0  0  0
 88100  1  0  0  0  0
 89 90  2  0  0  0  0
 89218  1  0  0  0  0
 91 92  1  0  0  0  0
 91101  1  0  0  0  0
 91102  1  0  0  0  0
 92 93  2  0  0  0  0
 92 94  1  0  0  0  0
 93 95  1  0  0  0  0
 93103  1  0  0  0  0
 94 96  2  0  0  0  0
 94104  1  0  0  0  0
 95 97  2  0  0  0  0
 95105  1  0  0  0  0
 96 97  1  0  0  0  0
 96106  1  0  0  0  0
 97 98  1  0  0  0  0
107108  1  0  0  0  0
107117  1  0  0  0  0
107134  1  0  0  0  0
107135  1  0  0  0  0
108109  1  0  0  0  0
108116  1  0  0  0  0
109110  1  0  0  0  0
109136  1  0  0  0  0
109137  1  0  0  0  0
110111  1  0  0  0  0
110138  1  0  0  0  0
110139  1  0  0  0  0
111112  1  0  0  0  0
111115  1  0  0  0  0
111140  1  0  0  0  0
112113  2  0  0  0  0
112114  1  0  0  0  0
115141  1  0  0  0  0
115142  1  0  0  0  0
115143  1  0  0  0  0
116144  1  0  0  0  0
116145  1  0  0  0  0
116146  1  0  0  0  0
117118  1  0  0  0  0
117121  1  0  0  0  0
117147  1  0  0  0  0
118119  1  0  0  0  0
119120  1  0  0  0  0
119124  1  0  0  0  0
119148  1  0  0  0  0
120121  1  0  0  0  0
120123  1  0  0  0  0
120149  1  0  0  0  0
121122  1  0  0  0  0
121150  1  0  0  0  0
122151  1  0  0  0  0
123152  1  0  0  0  0
124125  1  0  0  0  0
124133  1  0  0  0  0
125126  1  0  0  0  0
125153  1  0  0  0  0
126127  1  0  0  0  0
127128  1  0  0  0  0
127133  1  0  0  0  0
128129  1  0  0  0  0
128130  1  0  0  0  0
129154  1  0  0  0  0
129155  1  0  0  0  0
130131  1  0  0  0  0
131132  1  0  0  0  0
131156  1  0  0  0  0
132133  1  0  0  0  0
157158  2  0  0  0  0
157159  1  0  0  0  0
157160  1  0  0  0  0
160161  1  0  0  0  0
160162  1  0  0  0  0
160163  1  0  0  0  0
164165  1  0  0  0  0
164166  1  0  0  0  0
166167  1  0  0  0  0
166168  1  0  0  0  0
166169  1  0  0  0  0
170171  1  0  0  0  0
170172  1  0  0  0  0
172173  1  0  0  0  0
172174  1  0  0  0  0
172175  1  0  0  0  0
176177  1  0  0  0  0
176178  1  0  0  0  0
178179  1  0  0  0  0
178180  1  0  0  0  0
178181  1  0  0  0  0
182183  1  0  0  0  0
182184  1  0  0  0  0
184185  1  0  0  0  0
184186  1  0  0  0  0
184187  1  0  0  0  0
188189  1  0  0  0  0
188190  1  0  0  0  0
190191  1  0  0  0  0
190192  1  0  0  0  0
190193  1  0  0  0  0
194195  1  0  0  0  0
194196  1  0  0  0  0
196197  1  0  0  0  0
196198  1  0  0  0  0
196199  1  0  0  0  0
200201  1  0  0  0  0
200202  1  0  0  0  0
202203  1  0  0  0  0
202204  1  0  0  0  0
202205  1  0  0  0  0
206207  1  0  0  0  0
206208  1  0  0  0  0
208209  1  0  0  0  0
208210  1  0  0  0  0
208211  1  0  0  0  0
212213  1  0  0  0  0
212214  1  0  0  0  0
214215  1  0  0  0  0
214216  1  0  0  0  0
214217  1  0  0  0  0
218219  1  0  0  0  0
218220  1  0  0  0  0
220221  1  0  0  0  0
220222  1  0  0  0  0
220223  1  0  0  0  0
M  END
