 xtb: 6.6.1 (8d0f1dd)
          03042403173D

237234  0     0  0            999 V2000
   41.6320  105.8330  117.8650 N   0  0  0  0  0  0  0  0  0  0  0  0
   42.8440  105.2700  117.2750 C   0  0  0  0  0  0  0  0  0  0  0  0
   43.8930  106.3260  116.9740 C   0  0  0  0  0  0  0  0  0  0  0  0
   44.9220  106.0450  116.3540 O   0  0  0  0  0  0  0  0  0  0  0  0
   42.5020  104.5070  115.9930 C   0  0  0  0  0  0  0  0  0  0  0  0
   41.7480  103.2180  116.2300 C   0  0  0  0  0  0  0  0  0  0  0  0
   40.4000  103.2300  116.5590 C   0  0  0  0  0  0  0  0  0  0  0  0
   42.3850  101.9910  116.1220 C   0  0  0  0  0  0  0  0  0  0  0  0
   39.7060  102.0550  116.7760 C   0  0  0  0  0  0  0  0  0  0  0  0
   41.7020  100.8100  116.3370 C   0  0  0  0  0  0  0  0  0  0  0  0
   40.3620  100.8460  116.6640 C   0  0  0  0  0  0  0  0  0  0  0  0
   39.6760   99.6730  116.8780 O   0  0  0  0  0  0  0  0  0  0  0  0
   40.9790  106.3240  117.2720 H   0  0  0  0  0  0  0  0  0  0  0  0
   43.3200  104.5920  117.9840 H   0  0  0  0  0  0  0  0  0  0  0  0
   41.8990  105.1720  115.3730 H   0  0  0  0  0  0  0  0  0  0  0  0
   43.4420  104.2910  115.4860 H   0  0  0  0  0  0  0  0  0  0  0  0
   39.8890  104.1890  116.6460 H   0  0  0  0  0  0  0  0  0  0  0  0
   43.4440  101.9690  115.8630 H   0  0  0  0  0  0  0  0  0  0  0  0
   38.6480  102.0810  117.0340 H   0  0  0  0  0  0  0  0  0  0  0  0
   42.2220   99.8560  116.2480 H   0  0  0  0  0  0  0  0  0  0  0  0
   33.9410  101.4340  107.3990 N   0  0  0  0  0  0  0  0  0  0  0  0
   34.7830  101.0440  108.5220 C   0  0  0  0  0  0  0  0  0  0  0  0
   36.0710  100.4310  108.0020 C   0  0  0  0  0  0  0  0  0  0  0  0
   36.5660   99.4540  108.5620 O   0  0  0  0  0  0  0  0  0  0  0  0
   34.0600  100.0500  109.3910 C   0  0  0  0  0  0  0  0  0  0  0  0
   33.6740  100.7370  106.7180 H   0  0  0  0  0  0  0  0  0  0  0  0
   34.9990  101.9360  109.1100 H   0  0  0  0  0  0  0  0  0  0  0  0
   34.6990   99.7650  110.2270 H   0  0  0  0  0  0  0  0  0  0  0  0
   33.1430  100.4980  109.7720 H   0  0  0  0  0  0  0  0  0  0  0  0
   33.8160   99.1650  108.8050 H   0  0  0  0  0  0  0  0  0  0  0  0
   37.3460  106.0230  106.4360 N   0  0  0  0  0  0  0  0  0  0  0  0
   37.5460  105.7340  107.8460 C   0  0  0  0  0  0  0  0  0  0  0  0
   37.9680  107.0430  108.4980 C   0  0  0  0  0  0  0  0  0  0  0  0
   38.5490  107.9020  107.8340 O   0  0  0  0  0  0  0  0  0  0  0  0
   38.6050  104.6500  108.0600 C   0  0  0  0  0  0  0  0  0  0  0  0
   38.6290  104.1190  109.4870 C   0  0  0  0  0  0  0  0  0  0  0  0
   38.7400  104.9110  110.3930 O   0  0  0  0  0  0  0  0  0  0  0  0
   38.5370  102.9270  109.6580 O   0  0  0  0  0  0  0  0  0  0  0  0
   37.6320  106.9200  106.0720 H   0  0  0  0  0  0  0  0  0  0  0  0
   36.6110  105.3540  108.2580 H   0  0  0  0  0  0  0  0  0  0  0  0
   38.4160  103.8180  107.3820 H   0  0  0  0  0  0  0  0  0  0  0  0
   39.5900  105.0510  107.8210 H   0  0  0  0  0  0  0  0  0  0  0  0
   33.9670  110.6020  108.3430 N   0  0  0  0  0  0  0  0  0  0  0  0
   33.3650  110.2970  109.6310 C   0  0  0  0  0  0  0  0  0  0  0  0
   31.8650  110.1330  109.4970 C   0  0  0  0  0  0  0  0  0  0  0  0
   31.1950  111.0090  108.9630 O   0  0  0  0  0  0  0  0  0  0  0  0
   33.6960  111.3720  110.6490 C   0  0  0  0  0  0  0  0  0  0  0  0
   33.3890  110.9480  112.0580 C   0  0  0  0  0  0  0  0  0  0  0  0
   32.2800  110.4890  112.3530 O   0  0  0  0  0  0  0  0  0  0  0  0
   34.3500  111.0930  112.9340 N   0  0  0  0  0  0  0  0  0  0  0  0
   33.5680  111.3350  107.7740 H   0  0  0  0  0  0  0  0  0  0  0  0
   33.7980  109.3680  110.0040 H   0  0  0  0  0  0  0  0  0  0  0  0
   34.7560  111.6240  110.5800 H   0  0  0  0  0  0  0  0  0  0  0  0
   33.1300  112.2750  110.4220 H   0  0  0  0  0  0  0  0  0  0  0  0
   34.2020  110.8280  113.8880 H   0  0  0  0  0  0  0  0  0  0  0  0
   35.2320  111.4690  112.6510 H   0  0  0  0  0  0  0  0  0  0  0  0
   33.0350   94.3030  111.7150 N   0  0  0  0  0  0  0  0  0  0  0  0
   34.0590   94.3250  112.7480 C   0  0  0  0  0  0  0  0  0  0  0  0
   33.7710   95.0390  114.0610 C   0  0  0  0  0  0  0  0  0  0  0  0
   34.7010   95.4590  114.7520 O   0  0  0  0  0  0  0  0  0  0  0  0
   32.3930   93.5240  111.6750 H   0  0  0  0  0  0  0  0  0  0  0  0
   34.3200   93.3030  113.0240 H   0  0  0  0  0  0  0  0  0  0  0  0
   34.9620   94.7920  112.3560 H   0  0  0  0  0  0  0  0  0  0  0  0
   32.5000   95.1520  114.4240 N   0  0  0  0  0  0  0  0  0  0  0  0
   32.1230   95.8490  115.6460 C   0  0  0  0  0  0  0  0  0  0  0  0
   32.7600   97.2350  115.6500 C   0  0  0  0  0  0  0  0  0  0  0  0
   33.4860   97.6010  116.5770 O   0  0  0  0  0  0  0  0  0  0  0  0
   32.5290   95.0560  116.8750 C   0  0  0  0  0  0  0  0  0  0  0  0
   31.8270   95.5210  118.1210 C   0  0  0  0  0  0  0  0  0  0  0  0
   30.6300   95.8310  118.0940 O   0  0  0  0  0  0  0  0  0  0  0  0
   32.5470   95.5760  119.2120 N   0  0  0  0  0  0  0  0  0  0  0  0
   31.7780   94.7500  113.8450 H   0  0  0  0  0  0  0  0  0  0  0  0
   31.0360   95.9360  115.6740 H   0  0  0  0  0  0  0  0  0  0  0  0
   32.3050   94.0000  116.7180 H   0  0  0  0  0  0  0  0  0  0  0  0
   33.6050   95.1430  117.0260 H   0  0  0  0  0  0  0  0  0  0  0  0
   32.1320   95.8780  120.0710 H   0  0  0  0  0  0  0  0  0  0  0  0
   33.5120   95.3160  119.1870 H   0  0  0  0  0  0  0  0  0  0  0  0
   32.4890   97.9960  114.5930 N   0  0  0  0  0  0  0  0  0  0  0  0
   33.0270   99.3390  114.4550 C   0  0  0  0  0  0  0  0  0  0  0  0
   32.0600  100.4010  114.9480 C   0  0  0  0  0  0  0  0  0  0  0  0
   32.4640  101.3330  115.6360 O   0  0  0  0  0  0  0  0  0  0  0  0
   33.3770   99.6070  113.0040 C   0  0  0  0  0  0  0  0  0  0  0  0
   33.6290  100.9680  112.7910 O   0  0  0  0  0  0  0  0  0  0  0  0
   31.8930   97.6270  113.8660 H   0  0  0  0  0  0  0  0  0  0  0  0
   33.9340   99.4130  115.0560 H   0  0  0  0  0  0  0  0  0  0  0  0
   34.2550   99.0230  112.7280 H   0  0  0  0  0  0  0  0  0  0  0  0
   32.5550   99.2820  112.3660 H   0  0  0  0  0  0  0  0  0  0  0  0
   34.5090  101.1320  113.1390 H   0  0  0  0  0  0  0  0  0  0  0  0
   38.5390   88.3910  114.7810 N   0  0  0  0  0  0  0  0  0  0  0  0
   39.8700   88.4830  115.3550 C   0  0  0  0  0  0  0  0  0  0  0  0
   40.2490   87.1380  115.9520 C   0  0  0  0  0  0  0  0  0  0  0  0
   39.8470   86.8070  117.0640 O   0  0  0  0  0  0  0  0  0  0  0  0
   39.9340   89.5820  116.4190 C   0  0  0  0  0  0  0  0  0  0  0  0
   39.3290   90.8970  115.9790 C   0  0  0  0  0  0  0  0  0  0  0  0
   38.0390   91.2460  116.3490 C   0  0  0  0  0  0  0  0  0  0  0  0
   40.0520   91.7860  115.1980 C   0  0  0  0  0  0  0  0  0  0  0  0
   37.4810   92.4460  115.9500 C   0  0  0  0  0  0  0  0  0  0  0  0
   39.5050   92.9880  114.7930 C   0  0  0  0  0  0  0  0  0  0  0  0
   38.2190   93.3150  115.1720 C   0  0  0  0  0  0  0  0  0  0  0  0
   37.6700   94.5120  114.7720 O   0  0  0  0  0  0  0  0  0  0  0  0
   37.8100   87.9230  115.3010 H   0  0  0  0  0  0  0  0  0  0  0  0
   40.5930   88.7260  114.5760 H   0  0  0  0  0  0  0  0  0  0  0  0
   39.4020   89.2130  117.2970 H   0  0  0  0  0  0  0  0  0  0  0  0
   40.9850   89.7300  116.6660 H   0  0  0  0  0  0  0  0  0  0  0  0
   37.4620   90.5550  116.9630 H   0  0  0  0  0  0  0  0  0  0  0  0
   41.0670   91.5220  114.9020 H   0  0  0  0  0  0  0  0  0  0  0  0
   36.4660   92.7070  116.2470 H   0  0  0  0  0  0  0  0  0  0  0  0
   40.0890   93.6730  114.1780 H   0  0  0  0  0  0  0  0  0  0  0  0
   36.9220  100.1410  114.5260 C   0  0  0  0  0  0  0  0  0  0  0  0
   38.1560   98.8150  114.5040 S   0  0  0  0  0  0  0  0  0  0  0  0
   37.5420   97.8490  113.0870 C   0  0  0  0  0  0  0  0  0  0  0  0
   38.6500   97.7020  112.0440 C   0  0  0  0  0  0  0  0  0  0  0  0
   38.2490   96.9070  110.8020 C   0  0  0  0  0  0  0  0  0  0  0  0
   38.1230   95.3860  111.1170 C   0  0  0  0  0  0  0  0  0  0  0  0
   36.9920   94.9470  110.7300 O   0  0  0  0  0  0  0  0  0  0  0  0
   39.1140   94.8280  111.6290 O   0  0  0  0  0  0  0  0  0  0  0  0
   36.9350   97.4170  110.2470 N   0  0  0  0  0  0  0  0  0  0  0  0
   37.3680   97.8070  115.7910 C   0  0  0  0  0  0  0  0  0  0  0  0
   37.0390  101.1300  113.3680 C   0  0  0  0  0  0  0  0  0  0  0  0
   35.9340  102.0520  113.4950 O   0  0  0  0  0  0  0  0  0  0  0  0
   36.3250  103.2920  112.8950 C   0  0  0  0  0  0  0  0  0  0  0  0
   37.8350  103.3220  112.8750 C   0  0  0  0  0  0  0  0  0  0  0  0
   38.3230  101.9720  113.3290 C   0  0  0  0  0  0  0  0  0  0  0  0
   39.1870  101.5110  112.2750 O   0  0  0  0  0  0  0  0  0  0  0  0
   38.6490  104.4430  113.0510 O   0  0  0  0  0  0  0  0  0  0  0  0
   35.5900  104.3870  113.4550 N   0  0  0  0  0  0  0  0  0  0  0  0
   35.2470  104.6020  114.7570 C   0  0  0  0  0  0  0  0  0  0  0  0
   34.4500  105.6460  114.8860 N   0  0  0  0  0  0  0  0  0  0  0  0
   34.2530  106.1070  113.5990 C   0  0  0  0  0  0  0  0  0  0  0  0
   33.4930  107.1590  113.0620 C   0  0  0  0  0  0  0  0  0  0  0  0
   32.7150  108.0050  113.8350 N   0  0  0  0  0  0  0  0  0  0  0  0
   33.5260  107.3670  111.7260 N   0  0  0  0  0  0  0  0  0  0  0  0
   34.2690  106.5380  110.9640 C   0  0  0  0  0  0  0  0  0  0  0  0
   35.0320  105.5000  111.3610 N   0  0  0  0  0  0  0  0  0  0  0  0
   34.9720  105.3470  112.6960 C   0  0  0  0  0  0  0  0  0  0  0  0
   35.9160   99.7070  114.5430 H   0  0  0  0  0  0  0  0  0  0  0  0
   37.0350  100.6790  115.4750 H   0  0  0  0  0  0  0  0  0  0  0  0
   37.2600   96.8570  113.4550 H   0  0  0  0  0  0  0  0  0  0  0  0
   36.6470   98.3200  112.6740 H   0  0  0  0  0  0  0  0  0  0  0  0
   39.5330   97.2320  112.4960 H   0  0  0  0  0  0  0  0  0  0  0  0
   38.9700   98.7060  111.7320 H   0  0  0  0  0  0  0  0  0  0  0  0
   38.9880   97.0500  110.0060 H   0  0  0  0  0  0  0  0  0  0  0  0
   36.8860   97.2140  109.2450 H   0  0  0  0  0  0  0  0  0  0  0  0
   36.2580   96.7330  110.6590 H   0  0  0  0  0  0  0  0  0  0  0  0
   36.6830   98.3790  110.4610 H   0  0  0  0  0  0  0  0  0  0  0  0
   37.8890   96.8490  115.8550 H   0  0  0  0  0  0  0  0  0  0  0  0
   36.3120   97.6370  115.5630 H   0  0  0  0  0  0  0  0  0  0  0  0
   37.4570   98.3270  116.7470 H   0  0  0  0  0  0  0  0  0  0  0  0
   36.9060  100.5980  112.4170 H   0  0  0  0  0  0  0  0  0  0  0  0
   35.9750  103.1930  111.8580 H   0  0  0  0  0  0  0  0  0  0  0  0
   37.9750  103.2590  111.7810 H   0  0  0  0  0  0  0  0  0  0  0  0
   38.8690  102.0030  114.2760 H   0  0  0  0  0  0  0  0  0  0  0  0
   38.9260  102.0070  111.4740 H   0  0  0  0  0  0  0  0  0  0  0  0
   38.8480  104.8330  112.1790 H   0  0  0  0  0  0  0  0  0  0  0  0
   35.5880  103.9680  115.5660 H   0  0  0  0  0  0  0  0  0  0  0  0
   32.5280  108.8880  113.3800 H   0  0  0  0  0  0  0  0  0  0  0  0
   32.9720  108.0200  114.8160 H   0  0  0  0  0  0  0  0  0  0  0  0
   34.2510  106.7370  109.8960 H   0  0  0  0  0  0  0  0  0  0  0  0
   36.1000   94.4130  119.0450 C   0  0  0  0  0  0  0  0  0  0  0  0
   35.2250   95.0190  119.6410 O   0  0  0  0  0  0  0  0  0  0  0  0
   36.0490   93.1980  118.9580 O   0  0  0  0  0  0  0  0  0  0  0  0
   37.2440   95.1670  118.4160 C   0  0  0  0  0  0  0  0  0  0  0  0
   38.0560   95.2630  119.1370 H   0  0  0  0  0  0  0  0  0  0  0  0
   37.5990   94.6240  117.5390 H   0  0  0  0  0  0  0  0  0  0  0  0
   36.9050   96.1580  118.1150 H   0  0  0  0  0  0  0  0  0  0  0  0
   41.4000  105.6960  119.1650 C   0  0  0  0  0  0  0  0  0  0  0  0
   42.1890  105.1310  119.9170 O   0  0  0  0  0  0  0  0  0  0  0  0
   40.2100  106.2340  119.6690 C   0  0  0  0  0  0  0  0  0  0  0  0
   39.5300  105.4250  119.9390 H   0  0  0  0  0  0  0  0  0  0  0  0
   40.4280  106.8350  120.5520 H   0  0  0  0  0  0  0  0  0  0  0  0
   39.7430  106.8610  118.9090 H   0  0  0  0  0  0  0  0  0  0  0  0
   33.5100  102.6820  107.2390 C   0  0  0  0  0  0  0  0  0  0  0  0
   33.7610  103.5830  108.0400 O   0  0  0  0  0  0  0  0  0  0  0  0
   32.7240  102.9410  106.1100 C   0  0  0  0  0  0  0  0  0  0  0  0
   33.3490  103.3590  105.3200 H   0  0  0  0  0  0  0  0  0  0  0  0
   32.2700  102.0130  105.7610 H   0  0  0  0  0  0  0  0  0  0  0  0
   31.9400  103.6540  106.3680 H   0  0  0  0  0  0  0  0  0  0  0  0
   36.7990  105.1420  105.6080 C   0  0  0  0  0  0  0  0  0  0  0  0
   36.4430  104.0180  105.9610 O   0  0  0  0  0  0  0  0  0  0  0  0
   36.6500  105.5570  104.2790 C   0  0  0  0  0  0  0  0  0  0  0  0
   37.5870  105.9880  103.9250 H   0  0  0  0  0  0  0  0  0  0  0  0
   36.3870  104.7000  103.6580 H   0  0  0  0  0  0  0  0  0  0  0  0
   35.8600  106.3050  104.2180 H   0  0  0  0  0  0  0  0  0  0  0  0
   35.0290  109.9320  107.9070 C   0  0  0  0  0  0  0  0  0  0  0  0
   35.5540  109.0210  108.5560 O   0  0  0  0  0  0  0  0  0  0  0  0
   35.5350  110.3000  106.6540 C   0  0  0  0  0  0  0  0  0  0  0  0
   36.5860  110.5730  106.7520 H   0  0  0  0  0  0  0  0  0  0  0  0
   35.4400  109.4620  105.9630 H   0  0  0  0  0  0  0  0  0  0  0  0
   34.9720  111.1520  106.2710 H   0  0  0  0  0  0  0  0  0  0  0  0
   32.9200   95.2810  110.8180 C   0  0  0  0  0  0  0  0  0  0  0  0
   33.6270   96.2730  110.8130 O   0  0  0  0  0  0  0  0  0  0  0  0
   31.9180   95.1030  109.8570 C   0  0  0  0  0  0  0  0  0  0  0  0
   32.3630   94.7410  108.9300 H   0  0  0  0  0  0  0  0  0  0  0  0
   31.1910   94.3750  110.2190 H   0  0  0  0  0  0  0  0  0  0  0  0
   31.4170   96.0540  109.6720 H   0  0  0  0  0  0  0  0  0  0  0  0
   38.2740   88.9100  113.5910 C   0  0  0  0  0  0  0  0  0  0  0  0
   39.1200   89.4930  112.9160 O   0  0  0  0  0  0  0  0  0  0  0  0
   36.9580   88.7680  113.1350 C   0  0  0  0  0  0  0  0  0  0  0  0
   36.9510   88.1640  112.2270 H   0  0  0  0  0  0  0  0  0  0  0  0
   36.3580   88.2770  113.9020 H   0  0  0  0  0  0  0  0  0  0  0  0
   36.5390   89.7510  112.9210 H   0  0  0  0  0  0  0  0  0  0  0  0
   43.6350  107.5410  117.4310 N   0  0  0  0  0  0  0  0  0  0  0  0
   42.7770  107.7060  117.9380 H   0  0  0  0  0  0  0  0  0  0  0  0
   44.5220  108.6050  117.2290 C   0  0  0  0  0  0  0  0  0  0  0  0
   44.6050  108.8120  116.1620 H   0  0  0  0  0  0  0  0  0  0  0  0
   45.5030  108.3410  117.6250 H   0  0  0  0  0  0  0  0  0  0  0  0
   44.1520  109.4910  117.7440 H   0  0  0  0  0  0  0  0  0  0  0  0
   36.6010  100.9970  106.9210 N   0  0  0  0  0  0  0  0  0  0  0  0
   36.1410  101.8080  106.5320 H   0  0  0  0  0  0  0  0  0  0  0  0
   37.7630  100.5130  106.3080 C   0  0  0  0  0  0  0  0  0  0  0  0
   37.6160  100.4720  105.2300 H   0  0  0  0  0  0  0  0  0  0  0  0
   37.9830   99.5130  106.6840 H   0  0  0  0  0  0  0  0  0  0  0  0
   38.5980  101.1750  106.5370 H   0  0  0  0  0  0  0  0  0  0  0  0
   37.6850  107.2090  109.7860 N   0  0  0  0  0  0  0  0  0  0  0  0
   37.2210  106.4820  110.3110 H   0  0  0  0  0  0  0  0  0  0  0  0
   38.0310  108.4020  110.4310 C   0  0  0  0  0  0  0  0  0  0  0  0
   38.5940  109.0360  109.7470 H   0  0  0  0  0  0  0  0  0  0  0  0
   38.6410  108.1790  111.3060 H   0  0  0  0  0  0  0  0  0  0  0  0
   37.1260  108.9220  110.7460 H   0  0  0  0  0  0  0  0  0  0  0  0
   31.3450  109.0150  110.0010 N   0  0  0  0  0  0  0  0  0  0  0  0
   31.9580  108.3480  110.4470 H   0  0  0  0  0  0  0  0  0  0  0  0
   29.9740  108.7400  109.9310 C   0  0  0  0  0  0  0  0  0  0  0  0
   29.5660  109.1560  109.0100 H   0  0  0  0  0  0  0  0  0  0  0  0
   29.4690  109.1880  110.7870 H   0  0  0  0  0  0  0  0  0  0  0  0
   29.8180  107.6620  109.9440 H   0  0  0  0  0  0  0  0  0  0  0  0
   30.7870  100.2650  114.5940 N   0  0  0  0  0  0  0  0  0  0  0  0
   30.5080   99.4710  114.0360 H   0  0  0  0  0  0  0  0  0  0  0  0
   29.8210  101.2020  114.9790 C   0  0  0  0  0  0  0  0  0  0  0  0
   29.8520  102.0560  114.3030 H   0  0  0  0  0  0  0  0  0  0  0  0
   30.0220  101.5360  115.9970 H   0  0  0  0  0  0  0  0  0  0  0  0
   28.8330  100.7430  114.9400 H   0  0  0  0  0  0  0  0  0  0  0  0
   41.0280   86.3680  115.1950 N   0  0  0  0  0  0  0  0  0  0  0  0
   41.3250   86.7210  114.2970 H   0  0  0  0  0  0  0  0  0  0  0  0
   41.4450   85.0940  115.6000 C   0  0  0  0  0  0  0  0  0  0  0  0
   41.8510   84.5550  114.7440 H   0  0  0  0  0  0  0  0  0  0  0  0
   40.5960   84.5450  116.0070 H   0  0  0  0  0  0  0  0  0  0  0  0
   42.2140   85.1900  116.3670 H   0  0  0  0  0  0  0  0  0  0  0  0
  1  2  1  0  0  0  0
  2  3  1  0  0  0  0
  3  4  2  0  0  0  0
  2  5  1  0  0  0  0
  5  6  1  0  0  0  0
  6  7  4  0  0  0  0
  6  8  4  0  0  0  0
  7  9  4  0  0  0  0
  8 10  4  0  0  0  0
  9 11  4  0  0  0  0
 10 11  4  0  0  0  0
 11 12  4  0  0  0  0
  1 13  1  0  0  0  0
  2 14  1  0  0  0  0
  5 15  1  0  0  0  0
  5 16  1  0  0  0  0
  7 17  1  0  0  0  0
  8 18  1  0  0  0  0
  9 19  1  0  0  0  0
 10 20  1  0  0  0  0
 21 22  1  0  0  0  0
 22 23  1  0  0  0  0
 23 24  2  0  0  0  0
 22 25  1  0  0  0  0
 21 26  1  0  0  0  0
 22 27  1  0  0  0  0
 25 28  1  0  0  0  0
 25 29  1  0  0  0  0
 25 30  1  0  0  0  0
 31 32  1  0  0  0  0
 32 33  1  0  0  0  0
 33 34  2  0  0  0  0
 32 35  1  0  0  0  0
 35 36  1  0  0  0  0
 36 37  4  0  0  0  0
 36 38  2  0  0  0  0
 31 39  1  0  0  0  0
 32 40  1  0  0  0  0
 35 41  1  0  0  0  0
 35 42  1  0  0  0  0
 43 44  1  0  0  0  0
 44 45  1  0  0  0  0
 45 46  2  0  0  0  0
 44 47  1  0  0  0  0
 47 48  1  0  0  0  0
 48 49  2  0  0  0  0
 48 50  4  0  0  0  0
 43 51  1  0  0  0  0
 44 52  1  0  0  0  0
 47 53  1  0  0  0  0
 47 54  1  0  0  0  0
 50 55  1  0  0  0  0
 50 56  1  0  0  0  0
 57 58  1  0  0  0  0
 58 59  1  0  0  0  0
 59 60  2  0  0  0  0
 57 61  1  0  0  0  0
 58 62  1  0  0  0  0
 58 63  1  0  0  0  0
 59 64  4  0  0  0  0
 64 65  1  0  0  0  0
 65 66  1  0  0  0  0
 66 67  2  0  0  0  0
 65 68  1  0  0  0  0
 68 69  1  0  0  0  0
 69 70  2  0  0  0  0
 69 71  4  0  0  0  0
 64 72  1  0  0  0  0
 65 73  1  0  0  0  0
 68 74  1  0  0  0  0
 68 75  1  0  0  0  0
 71 76  1  0  0  0  0
 71 77  1  0  0  0  0
 66 78  4  0  0  0  0
 78 79  1  0  0  0  0
 79 80  1  0  0  0  0
 80 81  2  0  0  0  0
 79 82  1  0  0  0  0
 82 83  1  0  0  0  0
 78 84  1  0  0  0  0
 79 85  1  0  0  0  0
 82 86  1  0  0  0  0
 82 87  1  0  0  0  0
 83 88  1  0  0  0  0
 89 90  1  0  0  0  0
 90 91  1  0  0  0  0
 91 92  2  0  0  0  0
 90 93  1  0  0  0  0
 93 94  1  0  0  0  0
 94 95  4  0  0  0  0
 94 96  4  0  0  0  0
 95 97  4  0  0  0  0
 96 98  4  0  0  0  0
 97 99  4  0  0  0  0
 98 99  4  0  0  0  0
 99100  4  0  0  0  0
 89101  1  0  0  0  0
 90102  1  0  0  0  0
 93103  1  0  0  0  0
 93104  1  0  0  0  0
 95105  1  0  0  0  0
 96106  1  0  0  0  0
 97107  1  0  0  0  0
 98108  1  0  0  0  0
109110  1  0  0  0  0
110111  1  0  0  0  0
111112  1  0  0  0  0
112113  1  0  0  0  0
113114  1  0  0  0  0
114115  4  0  0  0  0
114116  2  0  0  0  0
113117  1  0  0  0  0
110118  1  0  0  0  0
109119  1  0  0  0  0
119120  1  0  0  0  0
120121  1  0  0  0  0
121122  1  0  0  0  0
119123  1  0  0  0  0
122123  1  0  0  0  0
123124  1  0  0  0  0
122125  1  0  0  0  0
121126  1  0  0  0  0
126127  4  0  0  0  0
127128  2  0  0  0  0
128129  4  0  0  0  0
129130  4  0  0  0  0
130131  4  0  0  0  0
130132  4  0  0  0  0
132133  4  0  0  0  0
133134  4  0  0  0  0
126135  1  0  0  0  0
129135  4  0  0  0  0
134135  4  0  0  0  0
109136  1  0  0  0  0
109137  1  0  0  0  0
111138  1  0  0  0  0
111139  1  0  0  0  0
112140  1  0  0  0  0
112141  1  0  0  0  0
113142  1  0  0  0  0
117143  1  0  0  0  0
117144  1  0  0  0  0
117145  1  0  0  0  0
118146  1  0  0  0  0
118147  1  0  0  0  0
118148  1  0  0  0  0
119149  1  0  0  0  0
121150  1  0  0  0  0
122151  1  0  0  0  0
123152  1  0  0  0  0
124153  1  0  0  0  0
125154  1  0  0  0  0
127155  1  0  0  0  0
131156  1  0  0  0  0
131157  1  0  0  0  0
133158  1  0  0  0  0
159160  4  0  0  0  0
159161  2  0  0  0  0
159162  1  0  0  0  0
162163  1  0  0  0  0
162164  1  0  0  0  0
162165  1  0  0  0  0
  1166  4  0  0  0  0
166167  2  0  0  0  0
166168  1  0  0  0  0
168169  1  0  0  0  0
168170  1  0  0  0  0
168171  1  0  0  0  0
 21172  4  0  0  0  0
172173  2  0  0  0  0
172174  1  0  0  0  0
174175  1  0  0  0  0
174176  1  0  0  0  0
174177  1  0  0  0  0
 31178  4  0  0  0  0
178179  2  0  0  0  0
178180  1  0  0  0  0
180181  1  0  0  0  0
180182  1  0  0  0  0
180183  1  0  0  0  0
 43184  4  0  0  0  0
184185  2  0  0  0  0
184186  1  0  0  0  0
186187  1  0  0  0  0
186188  1  0  0  0  0
186189  1  0  0  0  0
 57190  4  0  0  0  0
190191  2  0  0  0  0
190192  1  0  0  0  0
192193  1  0  0  0  0
192194  1  0  0  0  0
192195  1  0  0  0  0
 89196  4  0  0  0  0
196197  2  0  0  0  0
196198  1  0  0  0  0
198199  1  0  0  0  0
198200  1  0  0  0  0
198201  1  0  0  0  0
  3202  4  0  0  0  0
202203  1  0  0  0  0
202204  1  0  0  0  0
204205  1  0  0  0  0
204206  1  0  0  0  0
204207  1  0  0  0  0
 23208  4  0  0  0  0
208209  1  0  0  0  0
208210  1  0  0  0  0
210211  1  0  0  0  0
210212  1  0  0  0  0
210213  1  0  0  0  0
 33214  4  0  0  0  0
214215  1  0  0  0  0
214216  1  0  0  0  0
216217  1  0  0  0  0
216218  1  0  0  0  0
216219  1  0  0  0  0
 45220  4  0  0  0  0
220221  1  0  0  0  0
220222  1  0  0  0  0
222223  1  0  0  0  0
222224  1  0  0  0  0
222225  1  0  0  0  0
 80226  4  0  0  0  0
226227  1  0  0  0  0
226228  1  0  0  0  0
228229  1  0  0  0  0
228230  1  0  0  0  0
228231  1  0  0  0  0
 91232  4  0  0  0  0
232233  1  0  0  0  0
232234  1  0  0  0  0
234235  1  0  0  0  0
234236  1  0  0  0  0
234237  1  0  0  0  0
M  CHG  1   1  -2
M  END
